/*---------------------------------------------------------------------------*\
| =========                 |                                                 |
| \\      /  F ield         | OpenFOAM: The Open Source CFD Toolbox           |
|  \\    /   O peration     | Version:  2112                                  |
|   \\  /    A nd           | Website:  www.openfoam.com                      |
|    \\/     M anipulation  |                                                 |
\*---------------------------------------------------------------------------*/
Build  : _d44c8318-20220111 OPENFOAM=2112 version=2112
Arch   : "LSB;label=32;scalar=64"
Exec   : interFoam
Date   : Apr 04 2022
Time   : 16:08:08
Host   : DESKTOP-L7910J0
PID    : 19635
I/O    : uncollated
Case   : /home/jonathan/OpenFOAM/jonathan-v2112/run/bachelorsProject/nozzleMesh
nProcs : 1
trapFpe: Floating point exception trapping enabled (FOAM_SIGFPE).
fileModificationChecking : Monitoring run-time modified files using timeStampMaster (fileModificationSkew 5, maxFileModificationPolls 20)
allowSystemOperations : Allowing user-supplied system call operations

// * * * * * * * * * * * * * * * * * * * * * * * * * * * * * * * * * * * * * //
Create time

Create mesh for time = 0


PIMPLE: no residual control data found. Calculations will employ 2 corrector loops

Reading field p_rgh

Reading field U

Reading/calculating face flux field phi

Reading transportProperties

Selecting incompressible transport model HerschelBulkley
Selecting incompressible transport model Newtonian
Selecting turbulence model type laminar
Selecting laminar stress model Stokes

Reading g

Reading hRef
Calculating field g.h

No MRF models present

No finite volume options present
DICPCG:  Solving for pcorr, Initial residual = 1, Final residual = 8.65971e-13, No Iterations 116
time step continuity errors : sum local = 8.7546e-16, global = -5.04246e-17, cumulative = -5.04246e-17
Courant Number mean: 0.0102097 max: 0.206428

Starting time loop

Courant Number mean: 0.0102097 max: 0.206428
Interface Courant Number mean: 0 max: 0
deltaT = 0.00238095
Time = 0.00238095

PIMPLE: iteration 1
smoothSolver:  Solving for alpha.sika, Initial residual = 0.000373034, Final residual = 1.89333e-09, No Iterations 2
Phase-1 volume fraction = 0.0599485  Min(alpha.sika) = 1.2081e-180  Max(alpha.sika) = 1
MULES: Correcting alpha.sika
Phase-1 volume fraction = 0.0599485  Min(alpha.sika) = 1.2081e-180  Max(alpha.sika) = 1
DICPCG:  Solving for p_rgh, Initial residual = 1, Final residual = 0.00731623, No Iterations 65
time step continuity errors : sum local = 1.90334e-06, global = -4.74869e-07, cumulative = -4.74869e-07
DICPCG:  Solving for p_rgh, Initial residual = 4.27875e-10, Final residual = 2.2306e-12, No Iterations 64
time step continuity errors : sum local = 3.97973e-06, global = -1.10354e-06, cumulative = -1.57841e-06
DICPCG:  Solving for p_rgh, Initial residual = 1.32414e-09, Final residual = 8.90509e-13, No Iterations 68
time step continuity errors : sum local = 2.69091e-07, global = -6.64873e-09, cumulative = -1.58506e-06
PIMPLE: iteration 2
smoothSolver:  Solving for alpha.sika, Initial residual = 0.000138076, Final residual = 2.59147e-10, No Iterations 2
Phase-1 volume fraction = 0.0599485  Min(alpha.sika) = 0  Max(alpha.sika) = 1
MULES: Correcting alpha.sika
Phase-1 volume fraction = 0.0599485  Min(alpha.sika) = -1.2496e-143  Max(alpha.sika) = 1
DICPCG:  Solving for p_rgh, Initial residual = 2.0496e-06, Final residual = 1.86583e-08, No Iterations 35
time step continuity errors : sum local = 0.0040522, global = 0.00141088, cumulative = 0.0014093
DICPCG:  Solving for p_rgh, Initial residual = 1.52155e-06, Final residual = 1.25869e-08, No Iterations 47
time step continuity errors : sum local = 3.59099e-05, global = 1.53225e-05, cumulative = 0.00142462
DICPCG:  Solving for p_rgh, Initial residual = 1.58613e-07, Final residual = 8.29924e-13, No Iterations 74
time step continuity errors : sum local = 2.20608e-09, global = -8.64593e-12, cumulative = 0.00142462
ExecutionTime = 0.19 s  ClockTime = 0 s

Courant Number mean: 0.0122809 max: 0.446002
Interface Courant Number mean: 0.000336282 max: 0.191318
deltaT = 0.0026455
Time = 0.00502646

PIMPLE: iteration 1
smoothSolver:  Solving for alpha.sika, Initial residual = 0.000413379, Final residual = 5.18971e-09, No Iterations 2
Phase-1 volume fraction = 0.0602305  Min(alpha.sika) = 7.94798e-185  Max(alpha.sika) = 1
MULES: Correcting alpha.sika
Phase-1 volume fraction = 0.0602305  Min(alpha.sika) = -4.88517e-130  Max(alpha.sika) = 1
DICPCG:  Solving for p_rgh, Initial residual = 3.32347e-07, Final residual = 3.07475e-09, No Iterations 52
time step continuity errors : sum local = 9.4663e-06, global = -6.38532e-07, cumulative = 0.00142398
DICPCG:  Solving for p_rgh, Initial residual = 1.25021e-07, Final residual = 9.83599e-10, No Iterations 37
time step continuity errors : sum local = 2.51719e-06, global = 1.42322e-06, cumulative = 0.0014254
DICPCG:  Solving for p_rgh, Initial residual = 5.57906e-08, Final residual = 9.12973e-13, No Iterations 66
time step continuity errors : sum local = 2.26269e-09, global = 6.10743e-11, cumulative = 0.0014254
PIMPLE: iteration 2
smoothSolver:  Solving for alpha.sika, Initial residual = 0.00015462, Final residual = 2.92028e-09, No Iterations 2
Phase-1 volume fraction = 0.0602305  Min(alpha.sika) = 6.14849e-185  Max(alpha.sika) = 1
MULES: Correcting alpha.sika
Phase-1 volume fraction = 0.0602305  Min(alpha.sika) = -1.90827e-132  Max(alpha.sika) = 1
DICPCG:  Solving for p_rgh, Initial residual = 2.25041e-07, Final residual = 1.83366e-09, No Iterations 37
time step continuity errors : sum local = 4.43011e-06, global = 2.01715e-06, cumulative = 0.00142742
DICPCG:  Solving for p_rgh, Initial residual = 7.47332e-08, Final residual = 5.33878e-10, No Iterations 49
time step continuity errors : sum local = 1.26012e-06, global = -2.10953e-07, cumulative = 0.00142721
DICPCG:  Solving for p_rgh, Initial residual = 4.00184e-08, Final residual = 8.7581e-13, No Iterations 64
time step continuity errors : sum local = 1.979e-09, global = 1.02538e-10, cumulative = 0.00142721
ExecutionTime = 0.32 s  ClockTime = 0 s

Courant Number mean: 0.0139161 max: 0.455436
Interface Courant Number mean: 0.000389698 max: 0.211188
deltaT = 0.00299824
Time = 0.00802469

PIMPLE: iteration 1
smoothSolver:  Solving for alpha.sika, Initial residual = 0.000467038, Final residual = 6.38085e-11, No Iterations 3
Phase-1 volume fraction = 0.0605501  Min(alpha.sika) = 3.25835e-184  Max(alpha.sika) = 1
MULES: Correcting alpha.sika
Phase-1 volume fraction = 0.0605501  Min(alpha.sika) = -3.30003e-137  Max(alpha.sika) = 1
DICPCG:  Solving for p_rgh, Initial residual = 3.1551e-07, Final residual = 2.83878e-09, No Iterations 41
time step continuity errors : sum local = 7.79884e-06, global = 2.83857e-06, cumulative = 0.00143005
DICPCG:  Solving for p_rgh, Initial residual = 8.14109e-08, Final residual = 6.58503e-10, No Iterations 49
time step continuity errors : sum local = 1.78489e-06, global = -8.647e-07, cumulative = 0.00142918
DICPCG:  Solving for p_rgh, Initial residual = 3.86874e-08, Final residual = 9.33745e-13, No Iterations 64
time step continuity errors : sum local = 2.45093e-09, global = 4.82157e-11, cumulative = 0.00142918
PIMPLE: iteration 2
smoothSolver:  Solving for alpha.sika, Initial residual = 0.000252958, Final residual = 2.9733e-11, No Iterations 3
Phase-1 volume fraction = 0.0605501  Min(alpha.sika) = 2.34208e-184  Max(alpha.sika) = 1
MULES: Correcting alpha.sika
Phase-1 volume fraction = 0.0605501  Min(alpha.sika) = -1.07092e-104  Max(alpha.sika) = 1
DICPCG:  Solving for p_rgh, Initial residual = 1.29054e-07, Final residual = 1.24186e-09, No Iterations 36
time step continuity errors : sum local = 3.15691e-06, global = -8.841e-08, cumulative = 0.00142909
DICPCG:  Solving for p_rgh, Initial residual = 4.77826e-08, Final residual = 4.57227e-10, No Iterations 50
time step continuity errors : sum local = 1.15106e-06, global = -4.82274e-07, cumulative = 0.00142861
DICPCG:  Solving for p_rgh, Initial residual = 2.43353e-08, Final residual = 8.87943e-13, No Iterations 63
time step continuity errors : sum local = 2.17997e-09, global = -7.24068e-11, cumulative = 0.00142861
ExecutionTime = 0.44 s  ClockTime = 1 s

Courant Number mean: 0.0170785 max: 0.440434
Interface Courant Number mean: 0.000832199 max: 0.265661
deltaT = 0.00322887
Time = 0.0112536

PIMPLE: iteration 1
smoothSolver:  Solving for alpha.sika, Initial residual = 0.000500904, Final residual = 1.27577e-10, No Iterations 3
Phase-1 volume fraction = 0.0608943  Min(alpha.sika) = 6.01566e-184  Max(alpha.sika) = 1
MULES: Correcting alpha.sika
Phase-1 volume fraction = 0.0608943  Min(alpha.sika) = -4.04029e-150  Max(alpha.sika) = 1
DICPCG:  Solving for p_rgh, Initial residual = 2.62642e-07, Final residual = 2.2124e-09, No Iterations 51
time step continuity errors : sum local = 6.07739e-06, global = 7.18981e-07, cumulative = 0.00142933
DICPCG:  Solving for p_rgh, Initial residual = 6.29915e-08, Final residual = 5.74138e-10, No Iterations 41
time step continuity errors : sum local = 1.53171e-06, global = -7.50171e-07, cumulative = 0.00142858
DICPCG:  Solving for p_rgh, Initial residual = 2.93073e-08, Final residual = 8.47716e-13, No Iterations 63
time step continuity errors : sum local = 2.23118e-09, global = -5.18321e-11, cumulative = 0.00142858
PIMPLE: iteration 2
smoothSolver:  Solving for alpha.sika, Initial residual = 0.000337413, Final residual = 6.32915e-11, No Iterations 3
Phase-1 volume fraction = 0.0608943  Min(alpha.sika) = 0  Max(alpha.sika) = 1
MULES: Correcting alpha.sika
Phase-1 volume fraction = 0.0608943  Min(alpha.sika) = -3.35654e-115  Max(alpha.sika) = 1
DICPCG:  Solving for p_rgh, Initial residual = 1.91627e-07, Final residual = 1.53097e-09, No Iterations 38
time step continuity errors : sum local = 3.93163e-06, global = -1.16112e-06, cumulative = 0.00142742
DICPCG:  Solving for p_rgh, Initial residual = 5.01791e-08, Final residual = 4.5038e-10, No Iterations 51
time step continuity errors : sum local = 1.1423e-06, global = 1.59672e-07, cumulative = 0.00142758
DICPCG:  Solving for p_rgh, Initial residual = 1.87252e-08, Final residual = 8.75783e-13, No Iterations 63
time step continuity errors : sum local = 2.19761e-09, global = 1.71689e-10, cumulative = 0.00142758
ExecutionTime = 0.56 s  ClockTime = 1 s

Courant Number mean: 0.0199156 max: 0.654349
Interface Courant Number mean: 0.00107512 max: 0.335661
deltaT = 0.00242165
Time = 0.0136752

PIMPLE: iteration 1
smoothSolver:  Solving for alpha.sika, Initial residual = 0.000373787, Final residual = 2.18247e-11, No Iterations 3
Phase-1 volume fraction = 0.0611525  Min(alpha.sika) = 0  Max(alpha.sika) = 1
MULES: Correcting alpha.sika
Phase-1 volume fraction = 0.0611525  Min(alpha.sika) = -6.98721e-132  Max(alpha.sika) = 1
DICPCG:  Solving for p_rgh, Initial residual = 2.05245e-07, Final residual = 1.58253e-09, No Iterations 52
time step continuity errors : sum local = 2.18458e-06, global = 6.88393e-07, cumulative = 0.00142827
DICPCG:  Solving for p_rgh, Initial residual = 6.18723e-08, Final residual = 3.96364e-10, No Iterations 49
time step continuity errors : sum local = 5.54966e-07, global = -1.65892e-08, cumulative = 0.00142825
DICPCG:  Solving for p_rgh, Initial residual = 2.76045e-08, Final residual = 6.88605e-13, No Iterations 64
time step continuity errors : sum local = 9.54693e-10, global = -1.33675e-11, cumulative = 0.00142825
PIMPLE: iteration 2
smoothSolver:  Solving for alpha.sika, Initial residual = 0.000255166, Final residual = 1.86456e-11, No Iterations 3
Phase-1 volume fraction = 0.0611525  Min(alpha.sika) = 0  Max(alpha.sika) = 1
MULES: Correcting alpha.sika
Phase-1 volume fraction = 0.0611525  Min(alpha.sika) = 0  Max(alpha.sika) = 1
DICPCG:  Solving for p_rgh, Initial residual = 9.78111e-08, Final residual = 7.61352e-10, No Iterations 51
time step continuity errors : sum local = 9.95962e-07, global = -4.39917e-07, cumulative = 0.00142781
DICPCG:  Solving for p_rgh, Initial residual = 3.10471e-08, Final residual = 2.82548e-10, No Iterations 51
time step continuity errors : sum local = 3.74745e-07, global = 3.06645e-08, cumulative = 0.00142784
DICPCG:  Solving for p_rgh, Initial residual = 1.67119e-08, Final residual = 8.32084e-13, No Iterations 63
time step continuity errors : sum local = 1.0962e-09, global = -1.17071e-11, cumulative = 0.00142784
ExecutionTime = 0.69 s  ClockTime = 1 s

Courant Number mean: 0.0155731 max: 0.521028
Interface Courant Number mean: 0.00091785 max: 0.29612
deltaT = 0.0022703
Time = 0.0159455

PIMPLE: iteration 1
smoothSolver:  Solving for alpha.sika, Initial residual = 0.000349015, Final residual = 1.79433e-11, No Iterations 3
Phase-1 volume fraction = 0.0613945  Min(alpha.sika) = 0  Max(alpha.sika) = 1
MULES: Correcting alpha.sika
Phase-1 volume fraction = 0.0613945  Min(alpha.sika) = 0  Max(alpha.sika) = 1
DICPCG:  Solving for p_rgh, Initial residual = 2.41399e-07, Final residual = 1.98222e-09, No Iterations 51
time step continuity errors : sum local = 2.30318e-06, global = -4.82775e-07, cumulative = 0.00142736
DICPCG:  Solving for p_rgh, Initial residual = 4.74882e-08, Final residual = 3.92243e-10, No Iterations 51
time step continuity errors : sum local = 4.60957e-07, global = -6.68405e-10, cumulative = 0.00142736
DICPCG:  Solving for p_rgh, Initial residual = 2.02066e-08, Final residual = 9.47114e-13, No Iterations 63
time step continuity errors : sum local = 1.10893e-09, global = -5.17666e-12, cumulative = 0.00142736
PIMPLE: iteration 2
smoothSolver:  Solving for alpha.sika, Initial residual = 0.000240863, Final residual = 9.14585e-09, No Iterations 2
Phase-1 volume fraction = 0.0613945  Min(alpha.sika) = 0  Max(alpha.sika) = 1
MULES: Correcting alpha.sika
Phase-1 volume fraction = 0.0613945  Min(alpha.sika) = 0  Max(alpha.sika) = 1
DICPCG:  Solving for p_rgh, Initial residual = 6.09169e-08, Final residual = 5.62543e-10, No Iterations 51
time step continuity errors : sum local = 6.54522e-07, global = 5.49184e-08, cumulative = 0.00142741
DICPCG:  Solving for p_rgh, Initial residual = 2.39805e-08, Final residual = 1.97126e-10, No Iterations 52
time step continuity errors : sum local = 2.3033e-07, global = -1.48863e-08, cumulative = 0.0014274
DICPCG:  Solving for p_rgh, Initial residual = 1.48038e-08, Final residual = 8.40692e-13, No Iterations 63
time step continuity errors : sum local = 9.78255e-10, global = -2.68412e-11, cumulative = 0.0014274
ExecutionTime = 0.81 s  ClockTime = 1 s

Courant Number mean: 0.014905 max: 0.460939
Interface Courant Number mean: 0.000845678 max: 0.308699
deltaT = 0.00243246
Time = 0.018378

PIMPLE: iteration 1
smoothSolver:  Solving for alpha.sika, Initial residual = 0.000372549, Final residual = 2.84e-11, No Iterations 3
Phase-1 volume fraction = 0.0616538  Min(alpha.sika) = 0  Max(alpha.sika) = 1
MULES: Correcting alpha.sika
Phase-1 volume fraction = 0.0616538  Min(alpha.sika) = -2.35498e-124  Max(alpha.sika) = 1
DICPCG:  Solving for p_rgh, Initial residual = 2.49711e-07, Final residual = 2.28229e-09, No Iterations 37
time step continuity errors : sum local = 2.98976e-06, global = -3.56787e-07, cumulative = 0.00142704
DICPCG:  Solving for p_rgh, Initial residual = 3.79528e-08, Final residual = 3.21431e-10, No Iterations 52
time step continuity errors : sum local = 4.20904e-07, global = -8.90499e-08, cumulative = 0.00142695
DICPCG:  Solving for p_rgh, Initial residual = 1.73282e-08, Final residual = 8.8889e-13, No Iterations 63
time step continuity errors : sum local = 1.16092e-09, global = 1.61415e-12, cumulative = 0.00142695
PIMPLE: iteration 2
smoothSolver:  Solving for alpha.sika, Initial residual = 0.000247611, Final residual = 3.29194e-11, No Iterations 3
Phase-1 volume fraction = 0.0616538  Min(alpha.sika) = 0  Max(alpha.sika) = 1
MULES: Correcting alpha.sika
Phase-1 volume fraction = 0.0616538  Min(alpha.sika) = 0  Max(alpha.sika) = 1
DICPCG:  Solving for p_rgh, Initial residual = 5.45033e-08, Final residual = 5.44611e-10, No Iterations 50
time step continuity errors : sum local = 7.08042e-07, global = -9.16411e-08, cumulative = 0.00142686
DICPCG:  Solving for p_rgh, Initial residual = 2.04518e-08, Final residual = 1.89914e-10, No Iterations 52
time step continuity errors : sum local = 2.46403e-07, global = -2.71019e-08, cumulative = 0.00142683
DICPCG:  Solving for p_rgh, Initial residual = 1.3497e-08, Final residual = 9.12539e-13, No Iterations 62
time step continuity errors : sum local = 1.17913e-09, global = -2.01431e-11, cumulative = 0.00142683
ExecutionTime = 0.93 s  ClockTime = 1 s

Courant Number mean: 0.0163331 max: 0.43698
Interface Courant Number mean: 0.000884212 max: 0.340862
deltaT = 0.00263517
Time = 0.0210131

PIMPLE: iteration 1
smoothSolver:  Solving for alpha.sika, Initial residual = 0.000402052, Final residual = 5.32549e-11, No Iterations 3
Phase-1 volume fraction = 0.0619347  Min(alpha.sika) = 0  Max(alpha.sika) = 1
MULES: Correcting alpha.sika
Phase-1 volume fraction = 0.0619347  Min(alpha.sika) = 0  Max(alpha.sika) = 1
DICPCG:  Solving for p_rgh, Initial residual = 2.36643e-07, Final residual = 2.12503e-09, No Iterations 50
time step continuity errors : sum local = 3.15158e-06, global = 2.89264e-07, cumulative = 0.00142712
DICPCG:  Solving for p_rgh, Initial residual = 3.67475e-08, Final residual = 2.61051e-10, No Iterations 53
time step continuity errors : sum local = 3.86054e-07, global = -7.47494e-08, cumulative = 0.00142705
DICPCG:  Solving for p_rgh, Initial residual = 1.65226e-08, Final residual = 7.68074e-13, No Iterations 63
time step continuity errors : sum local = 1.13254e-09, global = 4.00727e-11, cumulative = 0.00142705
PIMPLE: iteration 2
smoothSolver:  Solving for alpha.sika, Initial residual = 0.000239622, Final residual = 6.21803e-11, No Iterations 3
Phase-1 volume fraction = 0.0619347  Min(alpha.sika) = 0  Max(alpha.sika) = 1
MULES: Correcting alpha.sika
Phase-1 volume fraction = 0.0619347  Min(alpha.sika) = 0  Max(alpha.sika) = 1
DICPCG:  Solving for p_rgh, Initial residual = 8.35964e-08, Final residual = 6.57601e-10, No Iterations 47
time step continuity errors : sum local = 9.65234e-07, global = -2.29162e-07, cumulative = 0.00142682
DICPCG:  Solving for p_rgh, Initial residual = 2.22091e-08, Final residual = 2.054e-10, No Iterations 52
time step continuity errors : sum local = 3.00745e-07, global = -3.98251e-08, cumulative = 0.00142678
DICPCG:  Solving for p_rgh, Initial residual = 1.3148e-08, Final residual = 9.01182e-13, No Iterations 62
time step continuity errors : sum local = 1.31361e-09, global = -3.00845e-11, cumulative = 0.00142678
ExecutionTime = 1.05 s  ClockTime = 1 s

Courant Number mean: 0.0181194 max: 0.445184
Interface Courant Number mean: 0.000935565 max: 0.364204
deltaT = 0.00289869
Time = 0.0239118

PIMPLE: iteration 1
smoothSolver:  Solving for alpha.sika, Initial residual = 0.000440508, Final residual = 1.15844e-10, No Iterations 3
Phase-1 volume fraction = 0.0622437  Min(alpha.sika) = 0  Max(alpha.sika) = 1
MULES: Correcting alpha.sika
Phase-1 volume fraction = 0.0622437  Min(alpha.sika) = 0  Max(alpha.sika) = 1
DICPCG:  Solving for p_rgh, Initial residual = 2.24032e-07, Final residual = 2.21702e-09, No Iterations 51
time step continuity errors : sum local = 3.80564e-06, global = 3.47554e-07, cumulative = 0.00142713
DICPCG:  Solving for p_rgh, Initial residual = 4.29368e-08, Final residual = 3.86967e-10, No Iterations 52
time step continuity errors : sum local = 6.62607e-07, global = -2.12406e-07, cumulative = 0.00142691
DICPCG:  Solving for p_rgh, Initial residual = 1.74617e-08, Final residual = 9.26703e-13, No Iterations 63
time step continuity errors : sum local = 1.58203e-09, global = 7.5231e-11, cumulative = 0.00142691
PIMPLE: iteration 2
smoothSolver:  Solving for alpha.sika, Initial residual = 0.000223069, Final residual = 1.04139e-10, No Iterations 3
Phase-1 volume fraction = 0.0622437  Min(alpha.sika) = 0  Max(alpha.sika) = 1
MULES: Correcting alpha.sika
Phase-1 volume fraction = 0.0622437  Min(alpha.sika) = 0  Max(alpha.sika) = 1
DICPCG:  Solving for p_rgh, Initial residual = 7.78575e-08, Final residual = 7.62536e-10, No Iterations 46
time step continuity errors : sum local = 1.2959e-06, global = -2.51321e-07, cumulative = 0.00142666
DICPCG:  Solving for p_rgh, Initial residual = 2.20129e-08, Final residual = 1.09049e-10, No Iterations 53
time step continuity errors : sum local = 1.85002e-07, global = -2.54453e-08, cumulative = 0.00142664
DICPCG:  Solving for p_rgh, Initial residual = 1.3458e-08, Final residual = 9.31872e-13, No Iterations 62
time step continuity errors : sum local = 1.57412e-09, global = -3.98139e-11, cumulative = 0.00142664
ExecutionTime = 1.18 s  ClockTime = 1 s

Courant Number mean: 0.0204003 max: 0.534301
Interface Courant Number mean: 0.00138384 max: 0.490677
deltaT = 0.00260882
Time = 0.0265206

PIMPLE: iteration 1
smoothSolver:  Solving for alpha.sika, Initial residual = 0.000394902, Final residual = 7.35383e-11, No Iterations 3
Phase-1 volume fraction = 0.0625218  Min(alpha.sika) = 0  Max(alpha.sika) = 1
MULES: Correcting alpha.sika
Phase-1 volume fraction = 0.0625218  Min(alpha.sika) = 0  Max(alpha.sika) = 1
DICPCG:  Solving for p_rgh, Initial residual = 1.64116e-07, Final residual = 1.24757e-09, No Iterations 52
time step continuity errors : sum local = 1.74068e-06, global = 1.97193e-07, cumulative = 0.00142683
DICPCG:  Solving for p_rgh, Initial residual = 4.66916e-08, Final residual = 4.06301e-10, No Iterations 51
time step continuity errors : sum local = 5.6582e-07, global = -2.03066e-07, cumulative = 0.00142663
DICPCG:  Solving for p_rgh, Initial residual = 1.9228e-08, Final residual = 8.40598e-13, No Iterations 64
time step continuity errors : sum local = 1.16739e-09, global = 2.72367e-11, cumulative = 0.00142663
PIMPLE: iteration 2
smoothSolver:  Solving for alpha.sika, Initial residual = 0.000216311, Final residual = 4.54941e-11, No Iterations 3
Phase-1 volume fraction = 0.0625218  Min(alpha.sika) = 0  Max(alpha.sika) = 1
MULES: Correcting alpha.sika
Phase-1 volume fraction = 0.0625218  Min(alpha.sika) = 0  Max(alpha.sika) = 1
DICPCG:  Solving for p_rgh, Initial residual = 7.39262e-08, Final residual = 7.28666e-10, No Iterations 50
time step continuity errors : sum local = 1.0079e-06, global = 3.66405e-08, cumulative = 0.00142667
DICPCG:  Solving for p_rgh, Initial residual = 2.13426e-08, Final residual = 9.70051e-11, No Iterations 53
time step continuity errors : sum local = 1.33931e-07, global = -1.63491e-08, cumulative = 0.00142665
DICPCG:  Solving for p_rgh, Initial residual = 1.46175e-08, Final residual = 7.89411e-13, No Iterations 63
time step continuity errors : sum local = 1.08562e-09, global = 2.06836e-11, cumulative = 0.00142665
ExecutionTime = 1.3 s  ClockTime = 1 s

Courant Number mean: 0.0185642 max: 0.592016
Interface Courant Number mean: 0.00134456 max: 0.440205
deltaT = 0.00213449
Time = 0.0286551

PIMPLE: iteration 1
smoothSolver:  Solving for alpha.sika, Initial residual = 0.000321928, Final residual = 2.3695e-11, No Iterations 3
Phase-1 volume fraction = 0.0627493  Min(alpha.sika) = 0  Max(alpha.sika) = 1
MULES: Correcting alpha.sika
Phase-1 volume fraction = 0.0627493  Min(alpha.sika) = 0  Max(alpha.sika) = 1
DICPCG:  Solving for p_rgh, Initial residual = 1.83825e-07, Final residual = 1.10105e-09, No Iterations 52
time step continuity errors : sum local = 1.05207e-06, global = 1.51802e-07, cumulative = 0.0014268
DICPCG:  Solving for p_rgh, Initial residual = 4.01194e-08, Final residual = 3.99337e-10, No Iterations 51
time step continuity errors : sum local = 3.80926e-07, global = -1.35571e-07, cumulative = 0.00142667
DICPCG:  Solving for p_rgh, Initial residual = 1.9196e-08, Final residual = 9.69288e-13, No Iterations 64
time step continuity errors : sum local = 9.2202e-10, global = -7.16372e-12, cumulative = 0.00142667
PIMPLE: iteration 2
smoothSolver:  Solving for alpha.sika, Initial residual = 0.00018903, Final residual = 4.7561e-09, No Iterations 2
Phase-1 volume fraction = 0.0627493  Min(alpha.sika) = 0  Max(alpha.sika) = 1
MULES: Correcting alpha.sika
Phase-1 volume fraction = 0.0627493  Min(alpha.sika) = 0  Max(alpha.sika) = 1
DICPCG:  Solving for p_rgh, Initial residual = 4.43415e-08, Final residual = 4.15345e-10, No Iterations 51
time step continuity errors : sum local = 3.93653e-07, global = -5.11292e-08, cumulative = 0.00142662
DICPCG:  Solving for p_rgh, Initial residual = 1.93557e-08, Final residual = 1.20622e-10, No Iterations 53
time step continuity errors : sum local = 1.14169e-07, global = -2.40721e-08, cumulative = 0.00142659
DICPCG:  Solving for p_rgh, Initial residual = 1.54067e-08, Final residual = 9.55211e-13, No Iterations 63
time step continuity errors : sum local = 9.00932e-10, global = 2.16037e-11, cumulative = 0.00142659
ExecutionTime = 1.42 s  ClockTime = 2 s

Courant Number mean: 0.0151118 max: 0.514953
Interface Courant Number mean: 0.00107548 max: 0.348113
deltaT = 0.00213449
Time = 0.0307896

PIMPLE: iteration 1
smoothSolver:  Solving for alpha.sika, Initial residual = 0.000320857, Final residual = 2.51e-11, No Iterations 3
Phase-1 volume fraction = 0.0629768  Min(alpha.sika) = 0  Max(alpha.sika) = 1
MULES: Correcting alpha.sika
Phase-1 volume fraction = 0.0629768  Min(alpha.sika) = 0  Max(alpha.sika) = 1
DICPCG:  Solving for p_rgh, Initial residual = 2.11639e-07, Final residual = 1.31024e-09, No Iterations 52
time step continuity errors : sum local = 1.23132e-06, global = 1.41654e-07, cumulative = 0.00142673
DICPCG:  Solving for p_rgh, Initial residual = 4.31166e-08, Final residual = 4.00384e-10, No Iterations 51
time step continuity errors : sum local = 3.75829e-07, global = -1.30773e-07, cumulative = 0.0014266
DICPCG:  Solving for p_rgh, Initial residual = 2.03567e-08, Final residual = 9.44257e-13, No Iterations 64
time step continuity errors : sum local = 8.84319e-10, global = -2.39799e-11, cumulative = 0.0014266
PIMPLE: iteration 2
smoothSolver:  Solving for alpha.sika, Initial residual = 0.00019939, Final residual = 5.25579e-09, No Iterations 2
Phase-1 volume fraction = 0.0629768  Min(alpha.sika) = 0  Max(alpha.sika) = 1
MULES: Correcting alpha.sika
Phase-1 volume fraction = 0.0629768  Min(alpha.sika) = 0  Max(alpha.sika) = 1
DICPCG:  Solving for p_rgh, Initial residual = 3.64752e-08, Final residual = 2.31537e-10, No Iterations 52
time step continuity errors : sum local = 2.16196e-07, global = -5.37024e-08, cumulative = 0.00142655
DICPCG:  Solving for p_rgh, Initial residual = 1.81324e-08, Final residual = 1.77467e-10, No Iterations 49
time step continuity errors : sum local = 1.65514e-07, global = -5.88232e-08, cumulative = 0.00142649
DICPCG:  Solving for p_rgh, Initial residual = 1.51497e-08, Final residual = 9.76607e-13, No Iterations 63
time step continuity errors : sum local = 9.08184e-10, global = -1.2617e-11, cumulative = 0.00142649
ExecutionTime = 1.54 s  ClockTime = 2 s

Courant Number mean: 0.014936 max: 0.465035
Interface Courant Number mean: 0.000990446 max: 0.331474
deltaT = 0.0024013
Time = 0.0331909

PIMPLE: iteration 1
smoothSolver:  Solving for alpha.sika, Initial residual = 0.000359748, Final residual = 5.66028e-11, No Iterations 3
Phase-1 volume fraction = 0.0632328  Min(alpha.sika) = 0  Max(alpha.sika) = 1
MULES: Correcting alpha.sika
Phase-1 volume fraction = 0.0632328  Min(alpha.sika) = 0  Max(alpha.sika) = 1
DICPCG:  Solving for p_rgh, Initial residual = 2.4372e-07, Final residual = 2.39385e-09, No Iterations 46
time step continuity errors : sum local = 2.74377e-06, global = 4.60091e-07, cumulative = 0.00142695
DICPCG:  Solving for p_rgh, Initial residual = 3.99314e-08, Final residual = 3.68217e-10, No Iterations 52
time step continuity errors : sum local = 4.2162e-07, global = -1.09101e-07, cumulative = 0.00142684
DICPCG:  Solving for p_rgh, Initial residual = 1.92221e-08, Final residual = 9.41933e-13, No Iterations 64
time step continuity errors : sum local = 1.0768e-09, global = -3.80883e-11, cumulative = 0.00142684
PIMPLE: iteration 2
smoothSolver:  Solving for alpha.sika, Initial residual = 0.000234255, Final residual = 9.85327e-09, No Iterations 2
Phase-1 volume fraction = 0.0632328  Min(alpha.sika) = 0  Max(alpha.sika) = 1
MULES: Correcting alpha.sika
Phase-1 volume fraction = 0.0632328  Min(alpha.sika) = 0  Max(alpha.sika) = 1
DICPCG:  Solving for p_rgh, Initial residual = 5.27216e-08, Final residual = 5.23584e-10, No Iterations 41
time step continuity errors : sum local = 5.97235e-07, global = -5.26845e-07, cumulative = 0.00142632
DICPCG:  Solving for p_rgh, Initial residual = 1.90459e-08, Final residual = 1.67037e-10, No Iterations 39
time step continuity errors : sum local = 1.90301e-07, global = -2.09768e-08, cumulative = 0.00142629
DICPCG:  Solving for p_rgh, Initial residual = 1.44616e-08, Final residual = 8.20808e-13, No Iterations 63
time step continuity errors : sum local = 9.32946e-10, global = -5.41165e-11, cumulative = 0.00142629
ExecutionTime = 1.65 s  ClockTime = 2 s

Courant Number mean: 0.0166694 max: 0.460716
Interface Courant Number mean: 0.00107832 max: 0.351453
deltaT = 0.00280151
Time = 0.0359924

PIMPLE: iteration 1
smoothSolver:  Solving for alpha.sika, Initial residual = 0.000418143, Final residual = 1.47807e-10, No Iterations 3
Phase-1 volume fraction = 0.0635315  Min(alpha.sika) = 0  Max(alpha.sika) = 1
MULES: Correcting alpha.sika
Phase-1 volume fraction = 0.0635315  Min(alpha.sika) = 0  Max(alpha.sika) = 1
DICPCG:  Solving for p_rgh, Initial residual = 2.33705e-07, Final residual = 2.01731e-09, No Iterations 46
time step continuity errors : sum local = 3.00937e-06, global = -4.02792e-07, cumulative = 0.00142589
DICPCG:  Solving for p_rgh, Initial residual = 3.22851e-08, Final residual = 2.90265e-10, No Iterations 52
time step continuity errors : sum local = 4.32551e-07, global = 7.07178e-08, cumulative = 0.00142596
DICPCG:  Solving for p_rgh, Initial residual = 1.76158e-08, Final residual = 9.13129e-13, No Iterations 64
time step continuity errors : sum local = 1.3591e-09, global = -4.29523e-11, cumulative = 0.00142596
PIMPLE: iteration 2
smoothSolver:  Solving for alpha.sika, Initial residual = 0.000277027, Final residual = 1.05554e-10, No Iterations 3
Phase-1 volume fraction = 0.0635315  Min(alpha.sika) = 0  Max(alpha.sika) = 1
MULES: Correcting alpha.sika
Phase-1 volume fraction = 0.0635315  Min(alpha.sika) = 0  Max(alpha.sika) = 1
DICPCG:  Solving for p_rgh, Initial residual = 5.94653e-08, Final residual = 5.09828e-10, No Iterations 36
time step continuity errors : sum local = 7.57555e-07, global = -3.29368e-07, cumulative = 0.00142563
DICPCG:  Solving for p_rgh, Initial residual = 1.90766e-08, Final residual = 1.73059e-10, No Iterations 38
time step continuity errors : sum local = 2.56875e-07, global = 1.40366e-07, cumulative = 0.00142577
DICPCG:  Solving for p_rgh, Initial residual = 1.4174e-08, Final residual = 9.23072e-13, No Iterations 62
time step continuity errors : sum local = 1.36715e-09, global = -5.26097e-11, cumulative = 0.00142577
ExecutionTime = 1.78 s  ClockTime = 2 s

Courant Number mean: 0.0194771 max: 0.470284
Interface Courant Number mean: 0.00116667 max: 0.381677
deltaT = 0.00280151
Time = 0.0387939

PIMPLE: iteration 1
smoothSolver:  Solving for alpha.sika, Initial residual = 0.000416436, Final residual = 1.47439e-10, No Iterations 3
Phase-1 volume fraction = 0.0638301  Min(alpha.sika) = 0  Max(alpha.sika) = 1
MULES: Correcting alpha.sika
Phase-1 volume fraction = 0.0638301  Min(alpha.sika) = 0  Max(alpha.sika) = 1
DICPCG:  Solving for p_rgh, Initial residual = 1.8876e-07, Final residual = 1.74692e-09, No Iterations 37
time step continuity errors : sum local = 2.58238e-06, global = 1.49235e-06, cumulative = 0.00142727
DICPCG:  Solving for p_rgh, Initial residual = 3.39096e-08, Final residual = 2.57952e-10, No Iterations 49
time step continuity errors : sum local = 3.80965e-07, global = 2.36635e-08, cumulative = 0.00142729
DICPCG:  Solving for p_rgh, Initial residual = 1.89474e-08, Final residual = 9.17511e-13, No Iterations 64
time step continuity errors : sum local = 1.35329e-09, global = -5.52061e-11, cumulative = 0.00142729
PIMPLE: iteration 2
smoothSolver:  Solving for alpha.sika, Initial residual = 0.000259996, Final residual = 9.71266e-11, No Iterations 3
Phase-1 volume fraction = 0.0638301  Min(alpha.sika) = 0  Max(alpha.sika) = 1
MULES: Correcting alpha.sika
Phase-1 volume fraction = 0.0638301  Min(alpha.sika) = 0  Max(alpha.sika) = 1
DICPCG:  Solving for p_rgh, Initial residual = 4.86311e-08, Final residual = 3.55179e-10, No Iterations 36
time step continuity errors : sum local = 5.23047e-07, global = -1.3622e-07, cumulative = 0.00142715
DICPCG:  Solving for p_rgh, Initial residual = 1.90336e-08, Final residual = 1.85989e-10, No Iterations 40
time step continuity errors : sum local = 2.73635e-07, global = 1.49785e-07, cumulative = 0.0014273
DICPCG:  Solving for p_rgh, Initial residual = 1.51183e-08, Final residual = 7.68111e-13, No Iterations 63
time step continuity errors : sum local = 1.1276e-09, global = -1.57546e-11, cumulative = 0.0014273
ExecutionTime = 1.89 s  ClockTime = 2 s

Courant Number mean: 0.0195182 max: 0.45109
Interface Courant Number mean: 0.00111614 max: 0.351806
deltaT = 0.00280151
Time = 0.0415955

PIMPLE: iteration 1
smoothSolver:  Solving for alpha.sika, Initial residual = 0.000414773, Final residual = 1.52841e-10, No Iterations 3
Phase-1 volume fraction = 0.0641287  Min(alpha.sika) = 0  Max(alpha.sika) = 1
MULES: Correcting alpha.sika
Phase-1 volume fraction = 0.0641287  Min(alpha.sika) = 0  Max(alpha.sika) = 1
DICPCG:  Solving for p_rgh, Initial residual = 1.86613e-07, Final residual = 1.50504e-09, No Iterations 36
time step continuity errors : sum local = 2.20544e-06, global = 1.16476e-07, cumulative = 0.00142742
DICPCG:  Solving for p_rgh, Initial residual = 3.62939e-08, Final residual = 3.48322e-10, No Iterations 42
time step continuity errors : sum local = 5.10114e-07, global = -4.50977e-07, cumulative = 0.00142697
DICPCG:  Solving for p_rgh, Initial residual = 2.06983e-08, Final residual = 9.97397e-13, No Iterations 63
time step continuity errors : sum local = 1.45875e-09, global = -1.91624e-11, cumulative = 0.00142697
PIMPLE: iteration 2
smoothSolver:  Solving for alpha.sika, Initial residual = 0.000231363, Final residual = 7.22666e-11, No Iterations 3
Phase-1 volume fraction = 0.0641287  Min(alpha.sika) = 0  Max(alpha.sika) = 1
MULES: Correcting alpha.sika
Phase-1 volume fraction = 0.0641287  Min(alpha.sika) = 0  Max(alpha.sika) = 1
DICPCG:  Solving for p_rgh, Initial residual = 3.97426e-08, Final residual = 3.74281e-10, No Iterations 36
time step continuity errors : sum local = 5.46633e-07, global = 2.2836e-08, cumulative = 0.00142699
DICPCG:  Solving for p_rgh, Initial residual = 1.95813e-08, Final residual = 1.38089e-10, No Iterations 53
time step continuity errors : sum local = 2.01518e-07, global = -9.66969e-09, cumulative = 0.00142698
DICPCG:  Solving for p_rgh, Initial residual = 1.57499e-08, Final residual = 6.73606e-13, No Iterations 63
time step continuity errors : sum local = 9.80961e-10, global = -6.55563e-12, cumulative = 0.00142698
ExecutionTime = 2.01 s  ClockTime = 2 s

Courant Number mean: 0.0194317 max: 0.432303
Interface Courant Number mean: 0.00109209 max: 0.323462
deltaT = 0.00280151
Time = 0.044397

PIMPLE: iteration 1
smoothSolver:  Solving for alpha.sika, Initial residual = 0.000413179, Final residual = 1.49506e-10, No Iterations 3
Phase-1 volume fraction = 0.0644274  Min(alpha.sika) = 0  Max(alpha.sika) = 1
MULES: Correcting alpha.sika
Phase-1 volume fraction = 0.0644274  Min(alpha.sika) = 0  Max(alpha.sika) = 1
DICPCG:  Solving for p_rgh, Initial residual = 1.73483e-07, Final residual = 1.32706e-09, No Iterations 37
time step continuity errors : sum local = 1.92951e-06, global = -1.11129e-06, cumulative = 0.00142587
DICPCG:  Solving for p_rgh, Initial residual = 3.60477e-08, Final residual = 3.12911e-10, No Iterations 49
time step continuity errors : sum local = 4.54671e-07, global = 1.61421e-07, cumulative = 0.00142603
DICPCG:  Solving for p_rgh, Initial residual = 2.08296e-08, Final residual = 7.46167e-13, No Iterations 64
time step continuity errors : sum local = 1.08269e-09, global = -1.63149e-11, cumulative = 0.00142603
PIMPLE: iteration 2
smoothSolver:  Solving for alpha.sika, Initial residual = 0.000220794, Final residual = 5.34377e-11, No Iterations 3
Phase-1 volume fraction = 0.0644274  Min(alpha.sika) = 0  Max(alpha.sika) = 1
MULES: Correcting alpha.sika
Phase-1 volume fraction = 0.0644274  Min(alpha.sika) = -3.29316e-41  Max(alpha.sika) = 1
DICPCG:  Solving for p_rgh, Initial residual = 4.70234e-08, Final residual = 3.86689e-10, No Iterations 35
time step continuity errors : sum local = 5.66537e-07, global = 3.2638e-07, cumulative = 0.00142636
DICPCG:  Solving for p_rgh, Initial residual = 2.02597e-08, Final residual = 1.26491e-10, No Iterations 53
time step continuity errors : sum local = 1.85173e-07, global = -7.84086e-09, cumulative = 0.00142635
DICPCG:  Solving for p_rgh, Initial residual = 1.62268e-08, Final residual = 6.44595e-13, No Iterations 63
time step continuity errors : sum local = 9.41712e-10, global = 1.33039e-11, cumulative = 0.00142635
ExecutionTime = 2.12 s  ClockTime = 2 s

Courant Number mean: 0.0194422 max: 0.430019
Interface Courant Number mean: 0.00137924 max: 0.388955
deltaT = 0.00280151
Time = 0.0471985

PIMPLE: iteration 1
smoothSolver:  Solving for alpha.sika, Initial residual = 0.000411624, Final residual = 1.40647e-10, No Iterations 3
Phase-1 volume fraction = 0.064726  Min(alpha.sika) = 0  Max(alpha.sika) = 1
MULES: Correcting alpha.sika
Phase-1 volume fraction = 0.064726  Min(alpha.sika) = -5.26906e-40  Max(alpha.sika) = 1
DICPCG:  Solving for p_rgh, Initial residual = 1.72292e-07, Final residual = 1.29319e-09, No Iterations 48
time step continuity errors : sum local = 1.91481e-06, global = -4.47021e-07, cumulative = 0.0014259
DICPCG:  Solving for p_rgh, Initial residual = 3.72463e-08, Final residual = 3.62999e-10, No Iterations 40
time step continuity errors : sum local = 5.3717e-07, global = 2.15356e-07, cumulative = 0.00142612
DICPCG:  Solving for p_rgh, Initial residual = 2.14918e-08, Final residual = 6.34235e-13, No Iterations 63
time step continuity errors : sum local = 9.37175e-10, global = 1.55356e-11, cumulative = 0.00142612
PIMPLE: iteration 2
smoothSolver:  Solving for alpha.sika, Initial residual = 0.000236518, Final residual = 5.34651e-11, No Iterations 3
Phase-1 volume fraction = 0.064726  Min(alpha.sika) = 0  Max(alpha.sika) = 1
MULES: Correcting alpha.sika
Phase-1 volume fraction = 0.064726  Min(alpha.sika) = -8.4305e-39  Max(alpha.sika) = 1
DICPCG:  Solving for p_rgh, Initial residual = 4.45568e-08, Final residual = 4.22059e-10, No Iterations 44
time step continuity errors : sum local = 6.22534e-07, global = 2.21774e-08, cumulative = 0.00142614
DICPCG:  Solving for p_rgh, Initial residual = 2.08041e-08, Final residual = 1.63915e-10, No Iterations 52
time step continuity errors : sum local = 2.4158e-07, global = 4.25057e-08, cumulative = 0.00142618
DICPCG:  Solving for p_rgh, Initial residual = 1.65737e-08, Final residual = 9.87144e-13, No Iterations 61
time step continuity errors : sum local = 1.45195e-09, global = 1.50592e-10, cumulative = 0.00142618
ExecutionTime = 2.24 s  ClockTime = 2 s

Courant Number mean: 0.0196154 max: 0.455142
Interface Courant Number mean: 0.00145727 max: 0.360399
deltaT = 0.00280151
Time = 0.05

PIMPLE: iteration 1
smoothSolver:  Solving for alpha.sika, Initial residual = 0.000410005, Final residual = 1.30293e-10, No Iterations 3
Phase-1 volume fraction = 0.0650246  Min(alpha.sika) = 0  Max(alpha.sika) = 1
MULES: Correcting alpha.sika
Phase-1 volume fraction = 0.0650246  Min(alpha.sika) = -6.58633e-41  Max(alpha.sika) = 1
DICPCG:  Solving for p_rgh, Initial residual = 1.90672e-07, Final residual = 1.78515e-09, No Iterations 48
time step continuity errors : sum local = 2.65503e-06, global = -2.20407e-07, cumulative = 0.00142596
DICPCG:  Solving for p_rgh, Initial residual = 4.41409e-08, Final residual = 3.90799e-10, No Iterations 51
time step continuity errors : sum local = 5.80855e-07, global = -8.26494e-08, cumulative = 0.00142588
DICPCG:  Solving for p_rgh, Initial residual = 2.40508e-08, Final residual = 7.77863e-13, No Iterations 62
time step continuity errors : sum local = 1.15438e-09, global = 8.78567e-13, cumulative = 0.00142588
PIMPLE: iteration 2
smoothSolver:  Solving for alpha.sika, Initial residual = 0.000259211, Final residual = 5.65953e-11, No Iterations 3
Phase-1 volume fraction = 0.0650246  Min(alpha.sika) = 0  Max(alpha.sika) = 1
MULES: Correcting alpha.sika
Phase-1 volume fraction = 0.0650246  Min(alpha.sika) = -5.26906e-40  Max(alpha.sika) = 1
DICPCG:  Solving for p_rgh, Initial residual = 3.72282e-08, Final residual = 3.2597e-10, No Iterations 49
time step continuity errors : sum local = 4.82784e-07, global = -1.31087e-08, cumulative = 0.00142587
DICPCG:  Solving for p_rgh, Initial residual = 1.89287e-08, Final residual = 1.27575e-10, No Iterations 50
time step continuity errors : sum local = 1.88812e-07, global = -1.96834e-08, cumulative = 0.00142585
DICPCG:  Solving for p_rgh, Initial residual = 1.64565e-08, Final residual = 9.93819e-13, No Iterations 61
time step continuity errors : sum local = 1.46798e-09, global = -1.27837e-10, cumulative = 0.00142585
ExecutionTime = 2.42 s  ClockTime = 3 s

Courant Number mean: 0.0199457 max: 0.381188
Interface Courant Number mean: 0.00137517 max: 0.332252
deltaT = 0.003125
Time = 0.053125

PIMPLE: iteration 1
smoothSolver:  Solving for alpha.sika, Initial residual = 0.000455478, Final residual = 2.31929e-10, No Iterations 3
Phase-1 volume fraction = 0.0653577  Min(alpha.sika) = 0  Max(alpha.sika) = 1
MULES: Correcting alpha.sika
Phase-1 volume fraction = 0.0653577  Min(alpha.sika) = -4.70198e-39  Max(alpha.sika) = 1
DICPCG:  Solving for p_rgh, Initial residual = 1.93398e-07, Final residual = 1.38569e-09, No Iterations 48
time step continuity errors : sum local = 2.48352e-06, global = -2.66481e-07, cumulative = 0.00142558
DICPCG:  Solving for p_rgh, Initial residual = 3.63781e-08, Final residual = 2.67545e-10, No Iterations 37
time step continuity errors : sum local = 4.79266e-07, global = 1.56122e-07, cumulative = 0.00142574
DICPCG:  Solving for p_rgh, Initial residual = 2.11441e-08, Final residual = 8.08428e-13, No Iterations 62
time step continuity errors : sum local = 1.44593e-09, global = -2.96396e-11, cumulative = 0.00142574
PIMPLE: iteration 2
smoothSolver:  Solving for alpha.sika, Initial residual = 0.00030845, Final residual = 1.17703e-10, No Iterations 3
Phase-1 volume fraction = 0.0653577  Min(alpha.sika) = 0  Max(alpha.sika) = 1
MULES: Correcting alpha.sika
Phase-1 volume fraction = 0.0653577  Min(alpha.sika) = -5.64237e-38  Max(alpha.sika) = 1
DICPCG:  Solving for p_rgh, Initial residual = 3.81495e-08, Final residual = 3.4241e-10, No Iterations 47
time step continuity errors : sum local = 6.12255e-07, global = 1.92691e-07, cumulative = 0.00142593
DICPCG:  Solving for p_rgh, Initial residual = 1.82706e-08, Final residual = 1.56075e-10, No Iterations 52
time step continuity errors : sum local = 2.7886e-07, global = -2.89358e-08, cumulative = 0.0014259
DICPCG:  Solving for p_rgh, Initial residual = 1.5189e-08, Final residual = 8.34626e-13, No Iterations 61
time step continuity errors : sum local = 1.48844e-09, global = -6.68504e-11, cumulative = 0.0014259
ExecutionTime = 2.53 s  ClockTime = 3 s

Courant Number mean: 0.0231355 max: 0.406289
Interface Courant Number mean: 0.0014279 max: 0.340236
deltaT = 0.00360577
Time = 0.0567308

PIMPLE: iteration 1
smoothSolver:  Solving for alpha.sika, Initial residual = 0.000523149, Final residual = 5.26157e-10, No Iterations 3
Phase-1 volume fraction = 0.0657421  Min(alpha.sika) = 0  Max(alpha.sika) = 1
MULES: Correcting alpha.sika
Phase-1 volume fraction = 0.0657421  Min(alpha.sika) = -1.35634e-39  Max(alpha.sika) = 1
DICPCG:  Solving for p_rgh, Initial residual = 1.81408e-07, Final residual = 1.29168e-09, No Iterations 48
time step continuity errors : sum local = 3.01099e-06, global = -2.46733e-07, cumulative = 0.00142565
DICPCG:  Solving for p_rgh, Initial residual = 3.15796e-08, Final residual = 3.12558e-10, No Iterations 37
time step continuity errors : sum local = 7.28282e-07, global = 3.70799e-07, cumulative = 0.00142602
DICPCG:  Solving for p_rgh, Initial residual = 1.88644e-08, Final residual = 8.76758e-13, No Iterations 62
time step continuity errors : sum local = 2.03995e-09, global = -4.02453e-11, cumulative = 0.00142602
PIMPLE: iteration 2
smoothSolver:  Solving for alpha.sika, Initial residual = 0.000355171, Final residual = 2.60836e-10, No Iterations 3
Phase-1 volume fraction = 0.0657421  Min(alpha.sika) = 0  Max(alpha.sika) = 1
MULES: Correcting alpha.sika
Phase-1 volume fraction = 0.0657421  Min(alpha.sika) = -5.42536e-39  Max(alpha.sika) = 1
DICPCG:  Solving for p_rgh, Initial residual = 4.08305e-08, Final residual = 3.94116e-10, No Iterations 37
time step continuity errors : sum local = 9.14758e-07, global = 6.79334e-07, cumulative = 0.0014267
DICPCG:  Solving for p_rgh, Initial residual = 1.80086e-08, Final residual = 1.57266e-10, No Iterations 52
time step continuity errors : sum local = 3.64801e-07, global = -3.78813e-08, cumulative = 0.00142667
DICPCG:  Solving for p_rgh, Initial residual = 1.43006e-08, Final residual = 8.54452e-13, No Iterations 61
time step continuity errors : sum local = 1.97871e-09, global = -9.4007e-11, cumulative = 0.00142667
ExecutionTime = 2.65 s  ClockTime = 3 s

Courant Number mean: 0.0279591 max: 0.466939
Interface Courant Number mean: 0.00159084 max: 0.357298
deltaT = 0.00393357
Time = 0.0606643

PIMPLE: iteration 1
smoothSolver:  Solving for alpha.sika, Initial residual = 0.000567834, Final residual = 8.08876e-10, No Iterations 3
Phase-1 volume fraction = 0.0661614  Min(alpha.sika) = 0  Max(alpha.sika) = 1
MULES: Correcting alpha.sika
Phase-1 volume fraction = 0.0661614  Min(alpha.sika) = -2.36743e-38  Max(alpha.sika) = 1
DICPCG:  Solving for p_rgh, Initial residual = 1.61749e-07, Final residual = 1.32128e-09, No Iterations 48
time step continuity errors : sum local = 3.55926e-06, global = -1.35471e-07, cumulative = 0.00142653
DICPCG:  Solving for p_rgh, Initial residual = 3.02387e-08, Final residual = 2.90692e-10, No Iterations 52
time step continuity errors : sum local = 7.82679e-07, global = -9.28691e-08, cumulative = 0.00142644
DICPCG:  Solving for p_rgh, Initial residual = 1.87624e-08, Final residual = 7.56943e-13, No Iterations 61
time step continuity errors : sum local = 2.03541e-09, global = -1.65347e-10, cumulative = 0.00142644
PIMPLE: iteration 2
smoothSolver:  Solving for alpha.sika, Initial residual = 0.000353673, Final residual = 3.13807e-10, No Iterations 3
Phase-1 volume fraction = 0.0661614  Min(alpha.sika) = 0  Max(alpha.sika) = 1
MULES: Correcting alpha.sika
Phase-1 volume fraction = 0.0661614  Min(alpha.sika) = -1.89394e-37  Max(alpha.sika) = 1
DICPCG:  Solving for p_rgh, Initial residual = 4.28378e-08, Final residual = 4.23613e-10, No Iterations 49
time step continuity errors : sum local = 1.13625e-06, global = -6.34233e-08, cumulative = 0.00142637
DICPCG:  Solving for p_rgh, Initial residual = 1.84004e-08, Final residual = 1.46868e-10, No Iterations 52
time step continuity errors : sum local = 3.93749e-07, global = -4.91949e-08, cumulative = 0.00142633
DICPCG:  Solving for p_rgh, Initial residual = 1.44521e-08, Final residual = 9.55899e-13, No Iterations 60
time step continuity errors : sum local = 2.55916e-09, global = -2.91333e-11, cumulative = 0.00142633
ExecutionTime = 2.77 s  ClockTime = 3 s

Courant Number mean: 0.0318665 max: 0.497918
Interface Courant Number mean: 0.00160153 max: 0.35334
deltaT = 0.00393357
Time = 0.0645979

PIMPLE: iteration 1
smoothSolver:  Solving for alpha.sika, Initial residual = 0.000565073, Final residual = 6.66626e-10, No Iterations 3
Phase-1 volume fraction = 0.0665807  Min(alpha.sika) = 0  Max(alpha.sika) = 1
MULES: Correcting alpha.sika
Phase-1 volume fraction = 0.0665807  Min(alpha.sika) = -1.51515e-36  Max(alpha.sika) = 1
DICPCG:  Solving for p_rgh, Initial residual = 1.42834e-07, Final residual = 1.26634e-09, No Iterations 46
time step continuity errors : sum local = 3.3838e-06, global = -5.84151e-08, cumulative = 0.00142627
DICPCG:  Solving for p_rgh, Initial residual = 2.92394e-08, Final residual = 2.06803e-10, No Iterations 51
time step continuity errors : sum local = 5.52353e-07, global = -1.66021e-08, cumulative = 0.00142625
DICPCG:  Solving for p_rgh, Initial residual = 1.91205e-08, Final residual = 9.25932e-13, No Iterations 62
time step continuity errors : sum local = 2.47036e-09, global = 4.56905e-11, cumulative = 0.00142625
PIMPLE: iteration 2
smoothSolver:  Solving for alpha.sika, Initial residual = 0.000330584, Final residual = 2.09936e-10, No Iterations 3
Phase-1 volume fraction = 0.0665807  Min(alpha.sika) = 0  Max(alpha.sika) = 1
MULES: Correcting alpha.sika
Phase-1 volume fraction = 0.0665807  Min(alpha.sika) = -3.03031e-36  Max(alpha.sika) = 1
DICPCG:  Solving for p_rgh, Initial residual = 4.35846e-08, Final residual = 4.05096e-10, No Iterations 48
time step continuity errors : sum local = 1.07824e-06, global = -2.16059e-07, cumulative = 0.00142603
DICPCG:  Solving for p_rgh, Initial residual = 1.98637e-08, Final residual = 1.57466e-10, No Iterations 51
time step continuity errors : sum local = 4.18915e-07, global = -4.53084e-08, cumulative = 0.00142599
DICPCG:  Solving for p_rgh, Initial residual = 1.54181e-08, Final residual = 6.99549e-13, No Iterations 60
time step continuity errors : sum local = 1.85894e-09, global = -4.37031e-11, cumulative = 0.00142599
ExecutionTime = 2.89 s  ClockTime = 3 s

Courant Number mean: 0.033365 max: 0.498538
Interface Courant Number mean: 0.00193554 max: 0.39608
deltaT = 0.00393357
Time = 0.0685315

PIMPLE: iteration 1
smoothSolver:  Solving for alpha.sika, Initial residual = 0.000563823, Final residual = 4.93114e-10, No Iterations 3
Phase-1 volume fraction = 0.067  Min(alpha.sika) = 0  Max(alpha.sika) = 1
MULES: Correcting alpha.sika
Phase-1 volume fraction = 0.067  Min(alpha.sika) = -1.21212e-35  Max(alpha.sika) = 1
DICPCG:  Solving for p_rgh, Initial residual = 1.52216e-07, Final residual = 1.12311e-09, No Iterations 48
time step continuity errors : sum local = 2.97966e-06, global = -1.40293e-07, cumulative = 0.00142585
DICPCG:  Solving for p_rgh, Initial residual = 2.7675e-08, Final residual = 2.60277e-10, No Iterations 50
time step continuity errors : sum local = 6.90252e-07, global = 4.83066e-08, cumulative = 0.0014259
DICPCG:  Solving for p_rgh, Initial residual = 1.91337e-08, Final residual = 8.9944e-13, No Iterations 60
time step continuity errors : sum local = 2.38316e-09, global = -7.44614e-12, cumulative = 0.0014259
PIMPLE: iteration 2
smoothSolver:  Solving for alpha.sika, Initial residual = 0.000348537, Final residual = 1.70802e-10, No Iterations 3
Phase-1 volume fraction = 0.067  Min(alpha.sika) = 0  Max(alpha.sika) = 1
MULES: Correcting alpha.sika
Phase-1 volume fraction = 0.067  Min(alpha.sika) = -1.84955e-40  Max(alpha.sika) = 1
DICPCG:  Solving for p_rgh, Initial residual = 3.53032e-08, Final residual = 2.13174e-10, No Iterations 49
time step continuity errors : sum local = 5.76747e-07, global = -1.38848e-07, cumulative = 0.00142576
DICPCG:  Solving for p_rgh, Initial residual = 1.72481e-08, Final residual = 9.78891e-11, No Iterations 50
time step continuity errors : sum local = 2.64719e-07, global = -2.76773e-08, cumulative = 0.00142573
DICPCG:  Solving for p_rgh, Initial residual = 1.44199e-08, Final residual = 7.27052e-13, No Iterations 61
time step continuity errors : sum local = 1.96438e-09, global = 9.48102e-11, cumulative = 0.00142573
ExecutionTime = 3.01 s  ClockTime = 3 s

Courant Number mean: 0.0349128 max: 0.49912
Interface Courant Number mean: 0.00202939 max: 0.355224
deltaT = 0.00393357
Time = 0.072465

PIMPLE: iteration 1
smoothSolver:  Solving for alpha.sika, Initial residual = 0.000561996, Final residual = 3.57094e-10, No Iterations 3
Phase-1 volume fraction = 0.0674193  Min(alpha.sika) = 0  Max(alpha.sika) = 1
MULES: Correcting alpha.sika
Phase-1 volume fraction = 0.0674193  Min(alpha.sika) = -3.78789e-37  Max(alpha.sika) = 1
DICPCG:  Solving for p_rgh, Initial residual = 1.4414e-07, Final residual = 1.28396e-09, No Iterations 47
time step continuity errors : sum local = 3.46293e-06, global = 4.00962e-07, cumulative = 0.00142613
DICPCG:  Solving for p_rgh, Initial residual = 2.41113e-08, Final residual = 1.90196e-10, No Iterations 51
time step continuity errors : sum local = 5.12696e-07, global = -1.28157e-07, cumulative = 0.001426
DICPCG:  Solving for p_rgh, Initial residual = 1.75724e-08, Final residual = 9.77287e-13, No Iterations 59
time step continuity errors : sum local = 2.63248e-09, global = -6.05061e-11, cumulative = 0.001426
PIMPLE: iteration 2
smoothSolver:  Solving for alpha.sika, Initial residual = 0.00037469, Final residual = 1.41882e-10, No Iterations 3
Phase-1 volume fraction = 0.0674193  Min(alpha.sika) = 0  Max(alpha.sika) = 1
MULES: Correcting alpha.sika
Phase-1 volume fraction = 0.0674193  Min(alpha.sika) = -2.27273e-36  Max(alpha.sika) = 1
DICPCG:  Solving for p_rgh, Initial residual = 2.96872e-08, Final residual = 2.26834e-10, No Iterations 50
time step continuity errors : sum local = 6.09577e-07, global = -9.68519e-08, cumulative = 0.00142591
DICPCG:  Solving for p_rgh, Initial residual = 1.63907e-08, Final residual = 1.59798e-10, No Iterations 49
time step continuity errors : sum local = 4.29241e-07, global = -2.54435e-08, cumulative = 0.00142588
DICPCG:  Solving for p_rgh, Initial residual = 1.40394e-08, Final residual = 7.8485e-13, No Iterations 61
time step continuity errors : sum local = 2.10658e-09, global = 1.19891e-10, cumulative = 0.00142588
ExecutionTime = 3.13 s  ClockTime = 3 s

Courant Number mean: 0.0364234 max: 0.499651
Interface Courant Number mean: 0.0019133 max: 0.322744
deltaT = 0.00393357
Time = 0.0763986

PIMPLE: iteration 1
smoothSolver:  Solving for alpha.sika, Initial residual = 0.000559863, Final residual = 2.54464e-10, No Iterations 3
Phase-1 volume fraction = 0.0678387  Min(alpha.sika) = 0  Max(alpha.sika) = 1
MULES: Correcting alpha.sika
Phase-1 volume fraction = 0.0678387  Min(alpha.sika) = -6.06062e-36  Max(alpha.sika) = 1
DICPCG:  Solving for p_rgh, Initial residual = 1.38217e-07, Final residual = 7.53089e-10, No Iterations 50
time step continuity errors : sum local = 2.01786e-06, global = -6.37934e-08, cumulative = 0.00142582
DICPCG:  Solving for p_rgh, Initial residual = 2.40626e-08, Final residual = 1.98986e-10, No Iterations 51
time step continuity errors : sum local = 5.32957e-07, global = -1.16052e-07, cumulative = 0.0014257
DICPCG:  Solving for p_rgh, Initial residual = 1.68759e-08, Final residual = 8.85703e-13, No Iterations 60
time step continuity errors : sum local = 2.37052e-09, global = -3.72476e-11, cumulative = 0.0014257
PIMPLE: iteration 2
smoothSolver:  Solving for alpha.sika, Initial residual = 0.000391544, Final residual = 1.03473e-10, No Iterations 3
Phase-1 volume fraction = 0.0678387  Min(alpha.sika) = 0  Max(alpha.sika) = 1
MULES: Correcting alpha.sika
Phase-1 volume fraction = 0.0678387  Min(alpha.sika) = -1.81819e-35  Max(alpha.sika) = 1
DICPCG:  Solving for p_rgh, Initial residual = 2.71542e-08, Final residual = 1.55618e-10, No Iterations 46
time step continuity errors : sum local = 4.15487e-07, global = 1.3911e-08, cumulative = 0.00142571
DICPCG:  Solving for p_rgh, Initial residual = 1.54844e-08, Final residual = 1.40529e-10, No Iterations 47
time step continuity errors : sum local = 3.75066e-07, global = -2.06524e-08, cumulative = 0.00142569
DICPCG:  Solving for p_rgh, Initial residual = 1.33401e-08, Final residual = 5.4102e-13, No Iterations 63
time step continuity errors : sum local = 1.4429e-09, global = 5.87257e-11, cumulative = 0.00142569
ExecutionTime = 3.26 s  ClockTime = 3 s

Courant Number mean: 0.0378104 max: 0.500102
Interface Courant Number mean: 0.00196159 max: 0.295746
deltaT = 0.00393357
Time = 0.0803322

PIMPLE: iteration 1
smoothSolver:  Solving for alpha.sika, Initial residual = 0.000557331, Final residual = 1.72525e-10, No Iterations 3
Phase-1 volume fraction = 0.068258  Min(alpha.sika) = 0  Max(alpha.sika) = 1
MULES: Correcting alpha.sika
Phase-1 volume fraction = 0.068258  Min(alpha.sika) = -2.42425e-35  Max(alpha.sika) = 1
DICPCG:  Solving for p_rgh, Initial residual = 1.3511e-07, Final residual = 1.30919e-09, No Iterations 33
time step continuity errors : sum local = 3.4845e-06, global = -1.16512e-06, cumulative = 0.00142453
DICPCG:  Solving for p_rgh, Initial residual = 2.36204e-08, Final residual = 1.44116e-10, No Iterations 51
time step continuity errors : sum local = 3.83515e-07, global = -1.07382e-07, cumulative = 0.00142442
DICPCG:  Solving for p_rgh, Initial residual = 1.60119e-08, Final residual = 7.27166e-13, No Iterations 61
time step continuity errors : sum local = 1.93339e-09, global = -5.52276e-11, cumulative = 0.00142442
PIMPLE: iteration 2
smoothSolver:  Solving for alpha.sika, Initial residual = 0.000365334, Final residual = 6.63556e-11, No Iterations 3
Phase-1 volume fraction = 0.068258  Min(alpha.sika) = 0  Max(alpha.sika) = 1
MULES: Correcting alpha.sika
Phase-1 volume fraction = 0.068258  Min(alpha.sika) = -4.84849e-35  Max(alpha.sika) = 1
DICPCG:  Solving for p_rgh, Initial residual = 2.56593e-08, Final residual = 1.30394e-10, No Iterations 50
time step continuity errors : sum local = 3.45825e-07, global = -1.6054e-08, cumulative = 0.00142441
DICPCG:  Solving for p_rgh, Initial residual = 1.43464e-08, Final residual = 8.84275e-11, No Iterations 50
time step continuity errors : sum local = 2.34465e-07, global = -5.75471e-08, cumulative = 0.00142435
DICPCG:  Solving for p_rgh, Initial residual = 1.2607e-08, Final residual = 9.5545e-13, No Iterations 61
time step continuity errors : sum local = 2.53159e-09, global = -1.12249e-10, cumulative = 0.00142435
ExecutionTime = 3.37 s  ClockTime = 3 s

Courant Number mean: 0.03924 max: 0.500478
Interface Courant Number mean: 0.001786 max: 0.272662
deltaT = 0.00393357
Time = 0.0842657

PIMPLE: iteration 1
smoothSolver:  Solving for alpha.sika, Initial residual = 0.000554647, Final residual = 1.13351e-10, No Iterations 3
Phase-1 volume fraction = 0.0686773  Min(alpha.sika) = 0  Max(alpha.sika) = 1
MULES: Correcting alpha.sika
Phase-1 volume fraction = 0.0686773  Min(alpha.sika) = -7.57577e-37  Max(alpha.sika) = 1
DICPCG:  Solving for p_rgh, Initial residual = 1.1941e-07, Final residual = 1.11999e-09, No Iterations 33
time step continuity errors : sum local = 3.03526e-06, global = -4.30466e-07, cumulative = 0.00142392
DICPCG:  Solving for p_rgh, Initial residual = 2.19485e-08, Final residual = 1.66316e-10, No Iterations 50
time step continuity errors : sum local = 4.50679e-07, global = -2.01774e-08, cumulative = 0.0014239
DICPCG:  Solving for p_rgh, Initial residual = 1.48603e-08, Final residual = 8.70239e-13, No Iterations 62
time step continuity errors : sum local = 2.35617e-09, global = -2.62353e-10, cumulative = 0.0014239
PIMPLE: iteration 2
smoothSolver:  Solving for alpha.sika, Initial residual = 0.000341612, Final residual = 7.63112e-09, No Iterations 2
Phase-1 volume fraction = 0.0686773  Min(alpha.sika) = 0  Max(alpha.sika) = 1
MULES: Correcting alpha.sika
Phase-1 volume fraction = 0.0686773  Min(alpha.sika) = -7.57577e-37  Max(alpha.sika) = 1
DICPCG:  Solving for p_rgh, Initial residual = 2.40441e-08, Final residual = 1.96456e-10, No Iterations 49
time step continuity errors : sum local = 5.30427e-07, global = -3.77385e-09, cumulative = 0.00142389
DICPCG:  Solving for p_rgh, Initial residual = 1.33929e-08, Final residual = 1.24545e-10, No Iterations 49
time step continuity errors : sum local = 3.36189e-07, global = -4.19171e-08, cumulative = 0.00142385
DICPCG:  Solving for p_rgh, Initial residual = 1.17502e-08, Final residual = 9.39775e-13, No Iterations 61
time step continuity errors : sum local = 2.53508e-09, global = -2.26757e-10, cumulative = 0.00142385
ExecutionTime = 3.49 s  ClockTime = 4 s

Courant Number mean: 0.0406368 max: 0.500795
Interface Courant Number mean: 0.00188387 max: 0.279476
deltaT = 0.00393357
Time = 0.0881993

PIMPLE: iteration 1
smoothSolver:  Solving for alpha.sika, Initial residual = 0.000551904, Final residual = 7.35386e-11, No Iterations 3
Phase-1 volume fraction = 0.0690966  Min(alpha.sika) = 0  Max(alpha.sika) = 1
MULES: Correcting alpha.sika
Phase-1 volume fraction = 0.0690966  Min(alpha.sika) = -1.51515e-36  Max(alpha.sika) = 1
DICPCG:  Solving for p_rgh, Initial residual = 1.10862e-07, Final residual = 8.58438e-10, No Iterations 34
time step continuity errors : sum local = 2.30551e-06, global = -7.68774e-07, cumulative = 0.00142308
DICPCG:  Solving for p_rgh, Initial residual = 2.10319e-08, Final residual = 1.37107e-10, No Iterations 50
time step continuity errors : sum local = 3.68188e-07, global = -1.83997e-08, cumulative = 0.00142306
DICPCG:  Solving for p_rgh, Initial residual = 1.40472e-08, Final residual = 9.81909e-13, No Iterations 62
time step continuity errors : sum local = 2.63457e-09, global = 8.60651e-11, cumulative = 0.00142306
PIMPLE: iteration 2
smoothSolver:  Solving for alpha.sika, Initial residual = 0.000346111, Final residual = 5.72747e-09, No Iterations 2
Phase-1 volume fraction = 0.0690966  Min(alpha.sika) = 0  Max(alpha.sika) = 1
MULES: Correcting alpha.sika
Phase-1 volume fraction = 0.0690966  Min(alpha.sika) = -3.03031e-36  Max(alpha.sika) = 1
DICPCG:  Solving for p_rgh, Initial residual = 2.33692e-08, Final residual = 1.14437e-10, No Iterations 49
time step continuity errors : sum local = 3.06196e-07, global = -6.94607e-08, cumulative = 0.00142299
DICPCG:  Solving for p_rgh, Initial residual = 1.27977e-08, Final residual = 1.12757e-10, No Iterations 49
time step continuity errors : sum local = 3.01627e-07, global = -5.0991e-09, cumulative = 0.00142299
DICPCG:  Solving for p_rgh, Initial residual = 1.1138e-08, Final residual = 9.17942e-13, No Iterations 61
time step continuity errors : sum local = 2.45392e-09, global = 1.3758e-11, cumulative = 0.00142299
ExecutionTime = 3.61 s  ClockTime = 4 s

Courant Number mean: 0.0420034 max: 0.501068
Interface Courant Number mean: 0.00196825 max: 0.260448
deltaT = 0.00393357
Time = 0.0921329

PIMPLE: iteration 1
smoothSolver:  Solving for alpha.sika, Initial residual = 0.000549018, Final residual = 4.70363e-11, No Iterations 3
Phase-1 volume fraction = 0.0695159  Min(alpha.sika) = 7.35421e-99  Max(alpha.sika) = 1
MULES: Correcting alpha.sika
Phase-1 volume fraction = 0.0695159  Min(alpha.sika) = 7.35421e-99  Max(alpha.sika) = 1
DICPCG:  Solving for p_rgh, Initial residual = 1.0081e-07, Final residual = 9.72799e-10, No Iterations 33
time step continuity errors : sum local = 2.66588e-06, global = -4.30299e-07, cumulative = 0.00142256
DICPCG:  Solving for p_rgh, Initial residual = 1.94653e-08, Final residual = 1.81251e-10, No Iterations 45
time step continuity errors : sum local = 4.96667e-07, global = 5.1618e-08, cumulative = 0.00142261
DICPCG:  Solving for p_rgh, Initial residual = 1.28808e-08, Final residual = 9.00196e-13, No Iterations 62
time step continuity errors : sum local = 2.4647e-09, global = 3.33965e-10, cumulative = 0.00142261
PIMPLE: iteration 2
smoothSolver:  Solving for alpha.sika, Initial residual = 0.000364255, Final residual = 4.49985e-09, No Iterations 2
Phase-1 volume fraction = 0.0695159  Min(alpha.sika) = 7.32036e-99  Max(alpha.sika) = 1
MULES: Correcting alpha.sika
Phase-1 volume fraction = 0.0695159  Min(alpha.sika) = 7.32036e-99  Max(alpha.sika) = 1
DICPCG:  Solving for p_rgh, Initial residual = 2.07661e-08, Final residual = 9.14829e-11, No Iterations 49
time step continuity errors : sum local = 2.497e-07, global = -4.48439e-08, cumulative = 0.00142257
DICPCG:  Solving for p_rgh, Initial residual = 1.167e-08, Final residual = 1.00721e-10, No Iterations 49
time step continuity errors : sum local = 2.74862e-07, global = -7.06425e-09, cumulative = 0.00142256
DICPCG:  Solving for p_rgh, Initial residual = 1.02055e-08, Final residual = 9.80385e-13, No Iterations 60
time step continuity errors : sum local = 2.67378e-09, global = 1.08223e-10, cumulative = 0.00142256
ExecutionTime = 3.72 s  ClockTime = 4 s

Courant Number mean: 0.0433579 max: 0.501311
Interface Courant Number mean: 0.00205492 max: 0.244643
deltaT = 0.00393357
Time = 0.0960664

PIMPLE: iteration 1
smoothSolver:  Solving for alpha.sika, Initial residual = 0.000546018, Final residual = 7.6753e-09, No Iterations 2
Phase-1 volume fraction = 0.0699352  Min(alpha.sika) = 7.57938e-99  Max(alpha.sika) = 1
MULES: Correcting alpha.sika
Phase-1 volume fraction = 0.0699352  Min(alpha.sika) = 7.57938e-99  Max(alpha.sika) = 1
DICPCG:  Solving for p_rgh, Initial residual = 9.54506e-08, Final residual = 8.95691e-10, No Iterations 31
time step continuity errors : sum local = 2.42614e-06, global = -2.98819e-07, cumulative = 0.00142226
DICPCG:  Solving for p_rgh, Initial residual = 1.88849e-08, Final residual = 1.617e-10, No Iterations 49
time step continuity errors : sum local = 4.37973e-07, global = -8.78657e-09, cumulative = 0.00142225
DICPCG:  Solving for p_rgh, Initial residual = 1.20404e-08, Final residual = 6.78812e-13, No Iterations 61
time step continuity errors : sum local = 1.83721e-09, global = 5.56612e-11, cumulative = 0.00142225
PIMPLE: iteration 2
smoothSolver:  Solving for alpha.sika, Initial residual = 0.000392493, Final residual = 3.51502e-09, No Iterations 2
Phase-1 volume fraction = 0.0699352  Min(alpha.sika) = 7.54845e-99  Max(alpha.sika) = 1
MULES: Correcting alpha.sika
Phase-1 volume fraction = 0.0699352  Min(alpha.sika) = 7.54845e-99  Max(alpha.sika) = 1
DICPCG:  Solving for p_rgh, Initial residual = 1.96726e-08, Final residual = 1.22311e-10, No Iterations 48
time step continuity errors : sum local = 3.2996e-07, global = -3.95289e-08, cumulative = 0.00142221
DICPCG:  Solving for p_rgh, Initial residual = 1.08312e-08, Final residual = 1.03511e-10, No Iterations 48
time step continuity errors : sum local = 2.79181e-07, global = -1.31653e-08, cumulative = 0.0014222
DICPCG:  Solving for p_rgh, Initial residual = 9.55018e-09, Final residual = 5.53609e-13, No Iterations 61
time step continuity errors : sum local = 1.49228e-09, global = 1.34527e-10, cumulative = 0.0014222
ExecutionTime = 3.84 s  ClockTime = 4 s

Courant Number mean: 0.0446783 max: 0.501533
Interface Courant Number mean: 0.00196524 max: 0.231545
deltaT = 0.00393357
Time = 0.1

PIMPLE: iteration 1
smoothSolver:  Solving for alpha.sika, Initial residual = 0.00054298, Final residual = 5.47663e-09, No Iterations 2
Phase-1 volume fraction = 0.0703545  Min(alpha.sika) = 7.77293e-99  Max(alpha.sika) = 1
MULES: Correcting alpha.sika
Phase-1 volume fraction = 0.0703545  Min(alpha.sika) = 7.77293e-99  Max(alpha.sika) = 1
DICPCG:  Solving for p_rgh, Initial residual = 9.00544e-08, Final residual = 5.63755e-10, No Iterations 34
time step continuity errors : sum local = 1.50858e-06, global = -8.59317e-08, cumulative = 0.00142211
DICPCG:  Solving for p_rgh, Initial residual = 1.84737e-08, Final residual = 1.36134e-10, No Iterations 49
time step continuity errors : sum local = 3.64273e-07, global = -1.13517e-08, cumulative = 0.0014221
DICPCG:  Solving for p_rgh, Initial residual = 1.14065e-08, Final residual = 7.38544e-13, No Iterations 58
time step continuity errors : sum local = 1.97479e-09, global = 3.55768e-11, cumulative = 0.0014221
PIMPLE: iteration 2
smoothSolver:  Solving for alpha.sika, Initial residual = 0.000399129, Final residual = 2.44874e-09, No Iterations 2
Phase-1 volume fraction = 0.0703545  Min(alpha.sika) = 7.74899e-99  Max(alpha.sika) = 1
MULES: Correcting alpha.sika
Phase-1 volume fraction = 0.0703545  Min(alpha.sika) = 7.74899e-99  Max(alpha.sika) = 1
DICPCG:  Solving for p_rgh, Initial residual = 1.90319e-08, Final residual = 1.38945e-10, No Iterations 44
time step continuity errors : sum local = 3.70264e-07, global = 6.11788e-08, cumulative = 0.00142216
DICPCG:  Solving for p_rgh, Initial residual = 1.01671e-08, Final residual = 8.68596e-11, No Iterations 49
time step continuity errors : sum local = 2.3141e-07, global = 4.45316e-08, cumulative = 0.00142221
DICPCG:  Solving for p_rgh, Initial residual = 8.96789e-09, Final residual = 7.97247e-13, No Iterations 58
time step continuity errors : sum local = 2.1228e-09, global = 1.43486e-10, cumulative = 0.00142221
ExecutionTime = 4 s  ClockTime = 4 s

Courant Number mean: 0.0459679 max: 0.501743
Interface Courant Number mean: 0.00205028 max: 0.220299
deltaT = 0.00384615
Time = 0.103846

PIMPLE: iteration 1
smoothSolver:  Solving for alpha.sika, Initial residual = 0.000527856, Final residual = 3.39133e-09, No Iterations 2
Phase-1 volume fraction = 0.0707645  Min(alpha.sika) = 7.91326e-99  Max(alpha.sika) = 1
MULES: Correcting alpha.sika
Phase-1 volume fraction = 0.0707645  Min(alpha.sika) = 7.91326e-99  Max(alpha.sika) = 1
DICPCG:  Solving for p_rgh, Initial residual = 8.45103e-08, Final residual = 7.37993e-10, No Iterations 34
time step continuity errors : sum local = 1.87452e-06, global = -4.86085e-08, cumulative = 0.00142216
DICPCG:  Solving for p_rgh, Initial residual = 1.77951e-08, Final residual = 1.28932e-10, No Iterations 49
time step continuity errors : sum local = 3.27479e-07, global = -2.25921e-09, cumulative = 0.00142216
DICPCG:  Solving for p_rgh, Initial residual = 1.08202e-08, Final residual = 8.00418e-13, No Iterations 58
time step continuity errors : sum local = 2.03148e-09, global = 8.51353e-11, cumulative = 0.00142216
PIMPLE: iteration 2
smoothSolver:  Solving for alpha.sika, Initial residual = 0.000361512, Final residual = 1.38655e-09, No Iterations 2
Phase-1 volume fraction = 0.0707645  Min(alpha.sika) = 7.89859e-99  Max(alpha.sika) = 1
MULES: Correcting alpha.sika
Phase-1 volume fraction = 0.0707645  Min(alpha.sika) = 7.89859e-99  Max(alpha.sika) = 1
DICPCG:  Solving for p_rgh, Initial residual = 1.83262e-08, Final residual = 1.1204e-10, No Iterations 44
time step continuity errors : sum local = 2.8337e-07, global = -1.89752e-08, cumulative = 0.00142214
DICPCG:  Solving for p_rgh, Initial residual = 9.70186e-09, Final residual = 8.55025e-11, No Iterations 49
time step continuity errors : sum local = 2.16207e-07, global = 3.08717e-08, cumulative = 0.00142217
DICPCG:  Solving for p_rgh, Initial residual = 8.54883e-09, Final residual = 6.8769e-13, No Iterations 61
time step continuity errors : sum local = 1.73792e-09, global = -1.47504e-11, cumulative = 0.00142217
ExecutionTime = 4.13 s  ClockTime = 4 s

Courant Number mean: 0.046183 max: 0.490792
Interface Courant Number mean: 0.00196316 max: 0.212652
deltaT = 0.00384615
Time = 0.107692

PIMPLE: iteration 1
smoothSolver:  Solving for alpha.sika, Initial residual = 0.000528308, Final residual = 2.25682e-09, No Iterations 2
Phase-1 volume fraction = 0.0711745  Min(alpha.sika) = 8.04708e-99  Max(alpha.sika) = 1
MULES: Correcting alpha.sika
Phase-1 volume fraction = 0.0711745  Min(alpha.sika) = 8.04708e-99  Max(alpha.sika) = 1
DICPCG:  Solving for p_rgh, Initial residual = 7.69531e-08, Final residual = 7.47978e-10, No Iterations 32
time step continuity errors : sum local = 1.87693e-06, global = 2.0364e-07, cumulative = 0.00142237
DICPCG:  Solving for p_rgh, Initial residual = 1.6726e-08, Final residual = 1.25027e-10, No Iterations 49
time step continuity errors : sum local = 3.13734e-07, global = 1.36254e-08, cumulative = 0.00142239
DICPCG:  Solving for p_rgh, Initial residual = 9.9646e-09, Final residual = 7.72046e-13, No Iterations 61
time step continuity errors : sum local = 1.93601e-09, global = 4.24782e-11, cumulative = 0.00142239
PIMPLE: iteration 2
smoothSolver:  Solving for alpha.sika, Initial residual = 0.000356244, Final residual = 8.88648e-10, No Iterations 2
Phase-1 volume fraction = 0.0711745  Min(alpha.sika) = 8.03835e-99  Max(alpha.sika) = 1
MULES: Correcting alpha.sika
Phase-1 volume fraction = 0.0711745  Min(alpha.sika) = 8.03835e-99  Max(alpha.sika) = 1
DICPCG:  Solving for p_rgh, Initial residual = 1.71532e-08, Final residual = 1.37969e-10, No Iterations 44
time step continuity errors : sum local = 3.44716e-07, global = 7.36228e-09, cumulative = 0.00142239
DICPCG:  Solving for p_rgh, Initial residual = 9.03646e-09, Final residual = 5.98779e-11, No Iterations 50
time step continuity errors : sum local = 1.4958e-07, global = 2.18891e-10, cumulative = 0.00142239
DICPCG:  Solving for p_rgh, Initial residual = 7.90136e-09, Final residual = 8.66186e-13, No Iterations 58
time step continuity errors : sum local = 2.16255e-09, global = 9.37426e-11, cumulative = 0.00142239
ExecutionTime = 4.25 s  ClockTime = 4 s

Courant Number mean: 0.0473151 max: 0.490987
Interface Courant Number mean: 0.00194069 max: 0.204882
deltaT = 0.00384615
Time = 0.111538

PIMPLE: iteration 1
smoothSolver:  Solving for alpha.sika, Initial residual = 0.000531318, Final residual = 1.47139e-09, No Iterations 2
Phase-1 volume fraction = 0.0715845  Min(alpha.sika) = 8.17697e-99  Max(alpha.sika) = 1
MULES: Correcting alpha.sika
Phase-1 volume fraction = 0.0715845  Min(alpha.sika) = 8.17697e-99  Max(alpha.sika) = 1
DICPCG:  Solving for p_rgh, Initial residual = 7.20514e-08, Final residual = 6.00921e-10, No Iterations 32
time step continuity errors : sum local = 1.48937e-06, global = 1.81136e-07, cumulative = 0.00142258
DICPCG:  Solving for p_rgh, Initial residual = 1.54975e-08, Final residual = 1.41329e-10, No Iterations 49
time step continuity errors : sum local = 3.50282e-07, global = 2.56086e-08, cumulative = 0.0014226
DICPCG:  Solving for p_rgh, Initial residual = 9.2493e-09, Final residual = 5.42816e-13, No Iterations 62
time step continuity errors : sum local = 1.34444e-09, global = -1.98702e-11, cumulative = 0.0014226
PIMPLE: iteration 2
smoothSolver:  Solving for alpha.sika, Initial residual = 0.000364409, Final residual = 6.08646e-10, No Iterations 2
Phase-1 volume fraction = 0.0715845  Min(alpha.sika) = 8.16911e-99  Max(alpha.sika) = 1
MULES: Correcting alpha.sika
Phase-1 volume fraction = 0.0715845  Min(alpha.sika) = 8.16911e-99  Max(alpha.sika) = 1
DICPCG:  Solving for p_rgh, Initial residual = 1.72879e-08, Final residual = 1.21387e-10, No Iterations 48
time step continuity errors : sum local = 2.99516e-07, global = 5.2145e-08, cumulative = 0.00142265
DICPCG:  Solving for p_rgh, Initial residual = 8.52528e-09, Final residual = 7.1067e-11, No Iterations 50
time step continuity errors : sum local = 1.75329e-07, global = -4.73522e-09, cumulative = 0.00142265
DICPCG:  Solving for p_rgh, Initial residual = 7.3337e-09, Final residual = 8.03582e-13, No Iterations 61
time step continuity errors : sum local = 1.98135e-09, global = -2.89757e-11, cumulative = 0.00142265
ExecutionTime = 4.36 s  ClockTime = 4 s

Courant Number mean: 0.048308 max: 0.491175
Interface Courant Number mean: 0.00202482 max: 0.197931
deltaT = 0.00384615
Time = 0.115385

PIMPLE: iteration 1
smoothSolver:  Solving for alpha.sika, Initial residual = 0.000533725, Final residual = 9.47615e-10, No Iterations 2
Phase-1 volume fraction = 0.0719945  Min(alpha.sika) = 8.2994e-99  Max(alpha.sika) = 1
MULES: Correcting alpha.sika
Phase-1 volume fraction = 0.0719945  Min(alpha.sika) = 8.2994e-99  Max(alpha.sika) = 1
DICPCG:  Solving for p_rgh, Initial residual = 7.06092e-08, Final residual = 5.55843e-10, No Iterations 32
time step continuity errors : sum local = 1.36041e-06, global = 2.02542e-07, cumulative = 0.00142285
DICPCG:  Solving for p_rgh, Initial residual = 1.4579e-08, Final residual = 9.78032e-11, No Iterations 50
time step continuity errors : sum local = 2.39375e-07, global = 2.5344e-08, cumulative = 0.00142288
DICPCG:  Solving for p_rgh, Initial residual = 8.60714e-09, Final residual = 9.99448e-13, No Iterations 61
time step continuity errors : sum local = 2.44455e-09, global = 7.92704e-12, cumulative = 0.00142288
PIMPLE: iteration 2
smoothSolver:  Solving for alpha.sika, Initial residual = 0.000377635, Final residual = 4.24999e-10, No Iterations 2
Phase-1 volume fraction = 0.0719945  Min(alpha.sika) = 8.29234e-99  Max(alpha.sika) = 1
MULES: Correcting alpha.sika
Phase-1 volume fraction = 0.0719945  Min(alpha.sika) = 8.29234e-99  Max(alpha.sika) = 1
DICPCG:  Solving for p_rgh, Initial residual = 1.82157e-08, Final residual = 1.27696e-10, No Iterations 48
time step continuity errors : sum local = 3.11115e-07, global = 2.60096e-08, cumulative = 0.0014229
DICPCG:  Solving for p_rgh, Initial residual = 8.11617e-09, Final residual = 6.17726e-11, No Iterations 50
time step continuity errors : sum local = 1.5048e-07, global = -2.86569e-09, cumulative = 0.0014229
DICPCG:  Solving for p_rgh, Initial residual = 6.78413e-09, Final residual = 7.1834e-13, No Iterations 61
time step continuity errors : sum local = 1.74888e-09, global = 6.23196e-11, cumulative = 0.0014229
ExecutionTime = 4.48 s  ClockTime = 5 s

Courant Number mean: 0.0492115 max: 0.49136
Interface Courant Number mean: 0.00211826 max: 0.193495
deltaT = 0.00384615
Time = 0.119231

PIMPLE: iteration 1
smoothSolver:  Solving for alpha.sika, Initial residual = 0.000535471, Final residual = 6.04224e-10, No Iterations 2
Phase-1 volume fraction = 0.0724045  Min(alpha.sika) = 8.41576e-99  Max(alpha.sika) = 1
MULES: Correcting alpha.sika
Phase-1 volume fraction = 0.0724045  Min(alpha.sika) = 8.41576e-99  Max(alpha.sika) = 1
DICPCG:  Solving for p_rgh, Initial residual = 6.92644e-08, Final residual = 4.51802e-10, No Iterations 32
time step continuity errors : sum local = 1.09177e-06, global = 1.80123e-07, cumulative = 0.00142308
DICPCG:  Solving for p_rgh, Initial residual = 1.40123e-08, Final residual = 1.00962e-10, No Iterations 50
time step continuity errors : sum local = 2.43976e-07, global = 2.90352e-08, cumulative = 0.00142311
DICPCG:  Solving for p_rgh, Initial residual = 7.97828e-09, Final residual = 5.54532e-13, No Iterations 62
time step continuity errors : sum local = 1.33919e-09, global = -1.25893e-11, cumulative = 0.00142311
PIMPLE: iteration 2
smoothSolver:  Solving for alpha.sika, Initial residual = 0.000400608, Final residual = 2.88257e-10, No Iterations 2
Phase-1 volume fraction = 0.0724045  Min(alpha.sika) = 8.4101e-99  Max(alpha.sika) = 1
MULES: Correcting alpha.sika
Phase-1 volume fraction = 0.0724045  Min(alpha.sika) = 8.4101e-99  Max(alpha.sika) = 1
DICPCG:  Solving for p_rgh, Initial residual = 1.80048e-08, Final residual = 1.71634e-10, No Iterations 47
time step continuity errors : sum local = 4.12847e-07, global = 4.037e-08, cumulative = 0.00142315
DICPCG:  Solving for p_rgh, Initial residual = 7.60638e-09, Final residual = 5.5527e-11, No Iterations 50
time step continuity errors : sum local = 1.33544e-07, global = -2.43956e-09, cumulative = 0.00142315
DICPCG:  Solving for p_rgh, Initial residual = 6.15443e-09, Final residual = 7.80891e-13, No Iterations 61
time step continuity errors : sum local = 1.87702e-09, global = 2.62394e-11, cumulative = 0.00142315
ExecutionTime = 4.6 s  ClockTime = 5 s

Courant Number mean: 0.0500372 max: 0.491541
Interface Courant Number mean: 0.00206305 max: 0.186995
deltaT = 0.00384615
Time = 0.123077

PIMPLE: iteration 1
smoothSolver:  Solving for alpha.sika, Initial residual = 0.000537042, Final residual = 3.7208e-10, No Iterations 2
Phase-1 volume fraction = 0.0728144  Min(alpha.sika) = 8.52849e-99  Max(alpha.sika) = 1
MULES: Correcting alpha.sika
Phase-1 volume fraction = 0.0728144  Min(alpha.sika) = 8.52849e-99  Max(alpha.sika) = 1
DICPCG:  Solving for p_rgh, Initial residual = 6.39765e-08, Final residual = 5.54829e-10, No Iterations 32
[...]
Phase-1 volume fraction = 0.0874477  Min(alpha.sika) = 3.86273e-94  Max(alpha.sika) = 1
MULES: Correcting alpha.sika
Phase-1 volume fraction = 0.0874477  Min(alpha.sika) = 3.86273e-94  Max(alpha.sika) = 1
DICPCG:  Solving for p_rgh, Initial residual = 2.60504e-10, Final residual = 2.36587e-12, No Iterations 49
time step continuity errors : sum local = 4.19411e-09, global = -9.20354e-10, cumulative = 0.00142497
DICPCG:  Solving for p_rgh, Initial residual = 8.54947e-11, Final residual = 5.65353e-13, No Iterations 51
time step continuity errors : sum local = 1.00223e-09, global = -1.75602e-10, cumulative = 0.00142497
DICPCG:  Solving for p_rgh, Initial residual = 6.10744e-11, Final residual = 7.87219e-13, No Iterations 50
time step continuity errors : sum local = 1.39553e-09, global = -2.82635e-10, cumulative = 0.00142497
ExecutionTime = 30.97 s  ClockTime = 31 s

Courant Number mean: 0.0455764 max: 0.498625
Interface Courant Number mean: 0.00188526 max: 0.184946
deltaT = 0.00384615
Time = 0.969231

PIMPLE: iteration 1
smoothSolver:  Solving for alpha.sika, Initial residual = 1.93329e-05, Final residual = 6.77727e-09, No Iterations 1
Phase-1 volume fraction = 0.0874431  Min(alpha.sika) = 3.9053e-94  Max(alpha.sika) = 1
MULES: Correcting alpha.sika
Phase-1 volume fraction = 0.0874431  Min(alpha.sika) = 3.9053e-94  Max(alpha.sika) = 1
DICPCG:  Solving for p_rgh, Initial residual = 1.01005e-09, Final residual = 7.51023e-12, No Iterations 49
time step continuity errors : sum local = 1.33145e-08, global = 2.66239e-09, cumulative = 0.00142497
DICPCG:  Solving for p_rgh, Initial residual = 2.09227e-10, Final residual = 2.02317e-12, No Iterations 51
time step continuity errors : sum local = 3.58683e-09, global = -1.65795e-10, cumulative = 0.00142497
DICPCG:  Solving for p_rgh, Initial residual = 9.99769e-11, Final residual = 8.67442e-13, No Iterations 51
time step continuity errors : sum local = 1.53783e-09, global = -1.88444e-10, cumulative = 0.00142497
PIMPLE: iteration 2
smoothSolver:  Solving for alpha.sika, Initial residual = 1.58886e-05, Final residual = 6.70017e-09, No Iterations 1
Phase-1 volume fraction = 0.0874431  Min(alpha.sika) = 3.90526e-94  Max(alpha.sika) = 1
MULES: Correcting alpha.sika
Phase-1 volume fraction = 0.0874431  Min(alpha.sika) = 3.90526e-94  Max(alpha.sika) = 1
DICPCG:  Solving for p_rgh, Initial residual = 2.6317e-10, Final residual = 2.41839e-12, No Iterations 49
time step continuity errors : sum local = 4.28734e-09, global = -8.82574e-10, cumulative = 0.00142497
DICPCG:  Solving for p_rgh, Initial residual = 8.58771e-11, Final residual = 5.59174e-13, No Iterations 51
time step continuity errors : sum local = 9.91302e-10, global = -1.7193e-10, cumulative = 0.00142497
DICPCG:  Solving for p_rgh, Initial residual = 6.12416e-11, Final residual = 7.84994e-13, No Iterations 50
time step continuity errors : sum local = 1.39163e-09, global = -2.80068e-10, cumulative = 0.00142497
ExecutionTime = 31.09 s  ClockTime = 31 s

Courant Number mean: 0.0455761 max: 0.498625
Interface Courant Number mean: 0.00188559 max: 0.184969
deltaT = 0.00384615
Time = 0.973077

PIMPLE: iteration 1
smoothSolver:  Solving for alpha.sika, Initial residual = 1.9326e-05, Final residual = 6.76049e-09, No Iterations 1
Phase-1 volume fraction = 0.0874385  Min(alpha.sika) = 3.94832e-94  Max(alpha.sika) = 1
MULES: Correcting alpha.sika
Phase-1 volume fraction = 0.0874385  Min(alpha.sika) = 3.94832e-94  Max(alpha.sika) = 1
DICPCG:  Solving for p_rgh, Initial residual = 1.0123e-09, Final residual = 7.4791e-12, No Iterations 49
time step continuity errors : sum local = 1.32597e-08, global = 2.62843e-09, cumulative = 0.00142497
DICPCG:  Solving for p_rgh, Initial residual = 2.10389e-10, Final residual = 1.99646e-12, No Iterations 51
time step continuity errors : sum local = 3.53958e-09, global = -1.57552e-10, cumulative = 0.00142497
DICPCG:  Solving for p_rgh, Initial residual = 1.00279e-10, Final residual = 8.66751e-13, No Iterations 51
time step continuity errors : sum local = 1.53665e-09, global = -1.85169e-10, cumulative = 0.00142497
PIMPLE: iteration 2
smoothSolver:  Solving for alpha.sika, Initial residual = 1.59244e-05, Final residual = 6.68745e-09, No Iterations 1
Phase-1 volume fraction = 0.0874385  Min(alpha.sika) = 3.94828e-94  Max(alpha.sika) = 1
MULES: Correcting alpha.sika
Phase-1 volume fraction = 0.0874385  Min(alpha.sika) = 3.94828e-94  Max(alpha.sika) = 1
DICPCG:  Solving for p_rgh, Initial residual = 2.65879e-10, Final residual = 2.46824e-12, No Iterations 49
time step continuity errors : sum local = 4.37584e-09, global = -8.44915e-10, cumulative = 0.00142497
DICPCG:  Solving for p_rgh, Initial residual = 8.62616e-11, Final residual = 9.98197e-13, No Iterations 50
time step continuity errors : sum local = 1.76965e-09, global = -3.69152e-10, cumulative = 0.00142497
DICPCG:  Solving for p_rgh, Initial residual = 6.15897e-11, Final residual = 7.98757e-13, No Iterations 50
time step continuity errors : sum local = 1.41607e-09, global = -2.8359e-10, cumulative = 0.00142497
ExecutionTime = 31.21 s  ClockTime = 31 s

Courant Number mean: 0.0455756 max: 0.498625
Interface Courant Number mean: 0.00188592 max: 0.184991
deltaT = 0.00384615
Time = 0.976923

PIMPLE: iteration 1
smoothSolver:  Solving for alpha.sika, Initial residual = 1.93137e-05, Final residual = 6.74434e-09, No Iterations 1
Phase-1 volume fraction = 0.0874339  Min(alpha.sika) = 3.99184e-94  Max(alpha.sika) = 1
MULES: Correcting alpha.sika
Phase-1 volume fraction = 0.0874339  Min(alpha.sika) = 3.99184e-94  Max(alpha.sika) = 1
DICPCG:  Solving for p_rgh, Initial residual = 1.01381e-09, Final residual = 7.44812e-12, No Iterations 49
time step continuity errors : sum local = 1.32052e-08, global = 2.59692e-09, cumulative = 0.00142497
DICPCG:  Solving for p_rgh, Initial residual = 2.11445e-10, Final residual = 1.89896e-12, No Iterations 51
time step continuity errors : sum local = 3.36683e-09, global = -1.36434e-10, cumulative = 0.00142497
DICPCG:  Solving for p_rgh, Initial residual = 1.00532e-10, Final residual = 8.42479e-13, No Iterations 51
time step continuity errors : sum local = 1.49366e-09, global = -1.75466e-10, cumulative = 0.00142497
PIMPLE: iteration 2
smoothSolver:  Solving for alpha.sika, Initial residual = 1.59675e-05, Final residual = 6.67463e-09, No Iterations 1
Phase-1 volume fraction = 0.0874339  Min(alpha.sika) = 3.9918e-94  Max(alpha.sika) = 1
MULES: Correcting alpha.sika
Phase-1 volume fraction = 0.0874339  Min(alpha.sika) = 3.9918e-94  Max(alpha.sika) = 1
DICPCG:  Solving for p_rgh, Initial residual = 2.68684e-10, Final residual = 2.51885e-12, No Iterations 49
time step continuity errors : sum local = 4.46569e-09, global = -8.13368e-10, cumulative = 0.00142497
DICPCG:  Solving for p_rgh, Initial residual = 8.66513e-11, Final residual = 5.63185e-13, No Iterations 51
time step continuity errors : sum local = 9.9847e-10, global = -1.71721e-10, cumulative = 0.00142497
DICPCG:  Solving for p_rgh, Initial residual = 6.16093e-11, Final residual = 7.71425e-13, No Iterations 50
time step continuity errors : sum local = 1.36765e-09, global = -2.70478e-10, cumulative = 0.00142497
ExecutionTime = 31.32 s  ClockTime = 31 s

Courant Number mean: 0.0455752 max: 0.498625
Interface Courant Number mean: 0.00188625 max: 0.185014
deltaT = 0.00384615
Time = 0.980769

PIMPLE: iteration 1
smoothSolver:  Solving for alpha.sika, Initial residual = 1.92953e-05, Final residual = 6.72871e-09, No Iterations 1
Phase-1 volume fraction = 0.0874293  Min(alpha.sika) = 4.03586e-94  Max(alpha.sika) = 1
MULES: Correcting alpha.sika
Phase-1 volume fraction = 0.0874293  Min(alpha.sika) = 4.03586e-94  Max(alpha.sika) = 1
DICPCG:  Solving for p_rgh, Initial residual = 1.01463e-09, Final residual = 7.42628e-12, No Iterations 49
time step continuity errors : sum local = 1.31668e-08, global = 2.57047e-09, cumulative = 0.00142497
DICPCG:  Solving for p_rgh, Initial residual = 2.12381e-10, Final residual = 1.89253e-12, No Iterations 51
time step continuity errors : sum local = 3.35552e-09, global = -1.32946e-10, cumulative = 0.00142497
DICPCG:  Solving for p_rgh, Initial residual = 1.00844e-10, Final residual = 8.18698e-13, No Iterations 51
time step continuity errors : sum local = 1.45154e-09, global = -1.65601e-10, cumulative = 0.00142497
PIMPLE: iteration 2
smoothSolver:  Solving for alpha.sika, Initial residual = 1.59921e-05, Final residual = 6.66154e-09, No Iterations 1
Phase-1 volume fraction = 0.0874292  Min(alpha.sika) = 4.03583e-94  Max(alpha.sika) = 1
MULES: Correcting alpha.sika
Phase-1 volume fraction = 0.0874292  Min(alpha.sika) = 4.03583e-94  Max(alpha.sika) = 1
DICPCG:  Solving for p_rgh, Initial residual = 2.71482e-10, Final residual = 2.56007e-12, No Iterations 49
time step continuity errors : sum local = 4.5389e-09, global = -7.75411e-10, cumulative = 0.00142497
DICPCG:  Solving for p_rgh, Initial residual = 8.70232e-11, Final residual = 5.61503e-13, No Iterations 51
time step continuity errors : sum local = 9.95517e-10, global = -1.69675e-10, cumulative = 0.00142497
DICPCG:  Solving for p_rgh, Initial residual = 6.17978e-11, Final residual = 7.73058e-13, No Iterations 50
time step continuity errors : sum local = 1.37059e-09, global = -2.70249e-10, cumulative = 0.00142497
ExecutionTime = 31.43 s  ClockTime = 32 s

Courant Number mean: 0.0455746 max: 0.498625
Interface Courant Number mean: 0.00188658 max: 0.185037
deltaT = 0.00384615
Time = 0.984615

PIMPLE: iteration 1
smoothSolver:  Solving for alpha.sika, Initial residual = 1.92703e-05, Final residual = 6.71347e-09, No Iterations 1
Phase-1 volume fraction = 0.0874247  Min(alpha.sika) = 4.0804e-94  Max(alpha.sika) = 1
MULES: Correcting alpha.sika
Phase-1 volume fraction = 0.0874247  Min(alpha.sika) = 4.0804e-94  Max(alpha.sika) = 1
DICPCG:  Solving for p_rgh, Initial residual = 1.01484e-09, Final residual = 7.42609e-12, No Iterations 49
time step continuity errors : sum local = 1.31669e-08, global = 2.55696e-09, cumulative = 0.00142498
DICPCG:  Solving for p_rgh, Initial residual = 2.13199e-10, Final residual = 2.00797e-12, No Iterations 51
time step continuity errors : sum local = 3.5603e-09, global = -1.57944e-10, cumulative = 0.00142498
DICPCG:  Solving for p_rgh, Initial residual = 1.01235e-10, Final residual = 8.59659e-13, No Iterations 51
time step continuity errors : sum local = 1.52421e-09, global = -1.76498e-10, cumulative = 0.00142498
PIMPLE: iteration 2
smoothSolver:  Solving for alpha.sika, Initial residual = 1.59964e-05, Final residual = 6.64801e-09, No Iterations 1
Phase-1 volume fraction = 0.0874246  Min(alpha.sika) = 4.08036e-94  Max(alpha.sika) = 1
MULES: Correcting alpha.sika
Phase-1 volume fraction = 0.0874246  Min(alpha.sika) = 4.08036e-94  Max(alpha.sika) = 1
DICPCG:  Solving for p_rgh, Initial residual = 2.74198e-10, Final residual = 2.59552e-12, No Iterations 49
time step continuity errors : sum local = 4.60189e-09, global = -7.44612e-10, cumulative = 0.00142497
DICPCG:  Solving for p_rgh, Initial residual = 8.73878e-11, Final residual = 5.74042e-13, No Iterations 51
time step continuity errors : sum local = 1.01778e-09, global = -1.74512e-10, cumulative = 0.00142497
DICPCG:  Solving for p_rgh, Initial residual = 6.19927e-11, Final residual = 7.78417e-13, No Iterations 50
time step continuity errors : sum local = 1.38013e-09, global = -2.72272e-10, cumulative = 0.00142497
ExecutionTime = 31.55 s  ClockTime = 32 s

Courant Number mean: 0.045574 max: 0.498625
Interface Courant Number mean: 0.00188691 max: 0.185059
deltaT = 0.00384615
Time = 0.988462

PIMPLE: iteration 1
smoothSolver:  Solving for alpha.sika, Initial residual = 1.92383e-05, Final residual = 6.6985e-09, No Iterations 1
Phase-1 volume fraction = 0.0874201  Min(alpha.sika) = 4.12545e-94  Max(alpha.sika) = 1
MULES: Correcting alpha.sika
Phase-1 volume fraction = 0.0874201  Min(alpha.sika) = 4.12545e-94  Max(alpha.sika) = 1
DICPCG:  Solving for p_rgh, Initial residual = 1.01444e-09, Final residual = 7.41353e-12, No Iterations 49
time step continuity errors : sum local = 1.3145e-08, global = 2.54122e-09, cumulative = 0.00142498
DICPCG:  Solving for p_rgh, Initial residual = 2.1384e-10, Final residual = 2.00825e-12, No Iterations 51
time step continuity errors : sum local = 3.56091e-09, global = -1.59369e-10, cumulative = 0.00142498
DICPCG:  Solving for p_rgh, Initial residual = 1.01543e-10, Final residual = 8.5863e-13, No Iterations 51
time step continuity errors : sum local = 1.52243e-09, global = -1.74739e-10, cumulative = 0.00142498
PIMPLE: iteration 2
smoothSolver:  Solving for alpha.sika, Initial residual = 1.59796e-05, Final residual = 6.63392e-09, No Iterations 1
Phase-1 volume fraction = 0.08742  Min(alpha.sika) = 4.12542e-94  Max(alpha.sika) = 1
MULES: Correcting alpha.sika
Phase-1 volume fraction = 0.08742  Min(alpha.sika) = 4.12542e-94  Max(alpha.sika) = 1
DICPCG:  Solving for p_rgh, Initial residual = 2.76738e-10, Final residual = 2.62224e-12, No Iterations 49
time step continuity errors : sum local = 4.6494e-09, global = -7.10298e-10, cumulative = 0.00142498
DICPCG:  Solving for p_rgh, Initial residual = 8.77265e-11, Final residual = 5.76398e-13, No Iterations 51
time step continuity errors : sum local = 1.02198e-09, global = -1.74707e-10, cumulative = 0.00142498
DICPCG:  Solving for p_rgh, Initial residual = 6.21776e-11, Final residual = 7.79772e-13, No Iterations 50
time step continuity errors : sum local = 1.38257e-09, global = -2.72213e-10, cumulative = 0.00142498
ExecutionTime = 31.67 s  ClockTime = 32 s

Courant Number mean: 0.0455734 max: 0.498625
Interface Courant Number mean: 0.00188724 max: 0.185082
deltaT = 0.00384615
Time = 0.992308

PIMPLE: iteration 1
smoothSolver:  Solving for alpha.sika, Initial residual = 1.91995e-05, Final residual = 6.68368e-09, No Iterations 1
Phase-1 volume fraction = 0.0874155  Min(alpha.sika) = 4.17104e-94  Max(alpha.sika) = 1
MULES: Correcting alpha.sika
Phase-1 volume fraction = 0.0874155  Min(alpha.sika) = 4.17104e-94  Max(alpha.sika) = 1
DICPCG:  Solving for p_rgh, Initial residual = 1.01356e-09, Final residual = 7.39964e-12, No Iterations 49
time step continuity errors : sum local = 1.31207e-08, global = 2.52549e-09, cumulative = 0.00142498
DICPCG:  Solving for p_rgh, Initial residual = 2.14324e-10, Final residual = 1.99432e-12, No Iterations 51
time step continuity errors : sum local = 3.53629e-09, global = -1.5922e-10, cumulative = 0.00142498
DICPCG:  Solving for p_rgh, Initial residual = 1.0181e-10, Final residual = 8.58861e-13, No Iterations 51
time step continuity errors : sum local = 1.52288e-09, global = -1.73675e-10, cumulative = 0.00142498
PIMPLE: iteration 2
smoothSolver:  Solving for alpha.sika, Initial residual = 1.5942e-05, Final residual = 6.61915e-09, No Iterations 1
Phase-1 volume fraction = 0.0874155  Min(alpha.sika) = 4.17101e-94  Max(alpha.sika) = 1
MULES: Correcting alpha.sika
Phase-1 volume fraction = 0.0874155  Min(alpha.sika) = 4.17101e-94  Max(alpha.sika) = 1
DICPCG:  Solving for p_rgh, Initial residual = 2.79071e-10, Final residual = 2.64077e-12, No Iterations 49
time step continuity errors : sum local = 4.68239e-09, global = -6.77779e-10, cumulative = 0.00142498
DICPCG:  Solving for p_rgh, Initial residual = 8.80628e-11, Final residual = 5.76511e-13, No Iterations 51
time step continuity errors : sum local = 1.02221e-09, global = -1.74131e-10, cumulative = 0.00142498
DICPCG:  Solving for p_rgh, Initial residual = 6.23419e-11, Final residual = 7.78562e-13, No Iterations 50
time step continuity errors : sum local = 1.38046e-09, global = -2.71179e-10, cumulative = 0.00142498
ExecutionTime = 31.78 s  ClockTime = 32 s

Courant Number mean: 0.0455727 max: 0.498625
Interface Courant Number mean: 0.00188757 max: 0.185104
deltaT = 0.00384615
Time = 0.996154

PIMPLE: iteration 1
smoothSolver:  Solving for alpha.sika, Initial residual = 1.91541e-05, Final residual = 6.66887e-09, No Iterations 1
Phase-1 volume fraction = 0.0874109  Min(alpha.sika) = 4.21716e-94  Max(alpha.sika) = 1
MULES: Correcting alpha.sika
Phase-1 volume fraction = 0.0874109  Min(alpha.sika) = 4.21716e-94  Max(alpha.sika) = 1
DICPCG:  Solving for p_rgh, Initial residual = 1.0142e-09, Final residual = 7.394e-12, No Iterations 49
time step continuity errors : sum local = 1.31111e-08, global = 2.51556e-09, cumulative = 0.00142498
DICPCG:  Solving for p_rgh, Initial residual = 2.14697e-10, Final residual = 1.98252e-12, No Iterations 51
time step continuity errors : sum local = 3.51547e-09, global = -1.60232e-10, cumulative = 0.00142498
DICPCG:  Solving for p_rgh, Initial residual = 1.02045e-10, Final residual = 8.58823e-13, No Iterations 51
time step continuity errors : sum local = 1.52285e-09, global = -1.72942e-10, cumulative = 0.00142498
PIMPLE: iteration 2
smoothSolver:  Solving for alpha.sika, Initial residual = 1.58843e-05, Final residual = 6.60362e-09, No Iterations 1
Phase-1 volume fraction = 0.0874109  Min(alpha.sika) = 4.21713e-94  Max(alpha.sika) = 1
MULES: Correcting alpha.sika
Phase-1 volume fraction = 0.0874109  Min(alpha.sika) = 4.21713e-94  Max(alpha.sika) = 1
DICPCG:  Solving for p_rgh, Initial residual = 2.8116e-10, Final residual = 2.65135e-12, No Iterations 49
time step continuity errors : sum local = 4.70127e-09, global = -6.47003e-10, cumulative = 0.00142498
DICPCG:  Solving for p_rgh, Initial residual = 8.8349e-11, Final residual = 5.69397e-13, No Iterations 51
time step continuity errors : sum local = 1.00963e-09, global = -1.70453e-10, cumulative = 0.00142498
DICPCG:  Solving for p_rgh, Initial residual = 6.24776e-11, Final residual = 7.7877e-13, No Iterations 50
time step continuity errors : sum local = 1.38087e-09, global = -2.71039e-10, cumulative = 0.00142498
ExecutionTime = 31.88 s  ClockTime = 32 s

Courant Number mean: 0.045572 max: 0.498625
Interface Courant Number mean: 0.0018879 max: 0.185126
deltaT = 0.00384615
Time = 1

PIMPLE: iteration 1
smoothSolver:  Solving for alpha.sika, Initial residual = 1.91027e-05, Final residual = 6.65396e-09, No Iterations 1
Phase-1 volume fraction = 0.0874064  Min(alpha.sika) = 4.26383e-94  Max(alpha.sika) = 1
MULES: Correcting alpha.sika
Phase-1 volume fraction = 0.0874064  Min(alpha.sika) = 4.26383e-94  Max(alpha.sika) = 1
DICPCG:  Solving for p_rgh, Initial residual = 1.01517e-09, Final residual = 7.38982e-12, No Iterations 49
time step continuity errors : sum local = 1.3104e-08, global = 2.50717e-09, cumulative = 0.00142498
DICPCG:  Solving for p_rgh, Initial residual = 2.14939e-10, Final residual = 1.94692e-12, No Iterations 51
time step continuity errors : sum local = 3.45245e-09, global = -1.57357e-10, cumulative = 0.00142498
DICPCG:  Solving for p_rgh, Initial residual = 1.02237e-10, Final residual = 8.56546e-13, No Iterations 51
time step continuity errors : sum local = 1.51886e-09, global = -1.71983e-10, cumulative = 0.00142498
PIMPLE: iteration 2
smoothSolver:  Solving for alpha.sika, Initial residual = 1.58109e-05, Final residual = 6.58731e-09, No Iterations 1
Phase-1 volume fraction = 0.0874064  Min(alpha.sika) = 4.2638e-94  Max(alpha.sika) = 1
MULES: Correcting alpha.sika
Phase-1 volume fraction = 0.0874064  Min(alpha.sika) = 4.2638e-94  Max(alpha.sika) = 1
DICPCG:  Solving for p_rgh, Initial residual = 2.82972e-10, Final residual = 2.65695e-12, No Iterations 49
time step continuity errors : sum local = 4.71132e-09, global = -6.23028e-10, cumulative = 0.00142498
DICPCG:  Solving for p_rgh, Initial residual = 8.85866e-11, Final residual = 5.6676e-13, No Iterations 51
time step continuity errors : sum local = 1.00498e-09, global = -1.68352e-10, cumulative = 0.00142498
DICPCG:  Solving for p_rgh, Initial residual = 6.25827e-11, Final residual = 7.72429e-13, No Iterations 50
time step continuity errors : sum local = 1.36966e-09, global = -2.67745e-10, cumulative = 0.00142498
ExecutionTime = 32.05 s  ClockTime = 32 s

End

